<configuration>
<input>
    <net-file value="demo.net.xml"/>
    <route-files value="test.rou.xml"/>
</input>
<time>
<begin value="0"/>
<end value="10000"/>
<step-length value="0.1"/>
</time>
</configuration>