<?xml version="1.0" encoding="UTF-8"?>

<!-- generated on 2022-07-21 16:01:53 by Eclipse SUMO netedit Version 1.10.0
<configuration xmlns:xsi="http://www.w3.org/2001/XMLSchema-instance" xsi:noNamespaceSchemaLocation="http://sumo.dlr.de/xsd/netconvertConfiguration.xsd">

    <input>
        <sumo-net-file value="F:\learn_science\sumo\KDGAN-CSR\assets\sumo\demo.net.xml"/>
    </input>

    <output>
        <output-file value="F:\learn_science\sumo\KDGAN-CSR\assets\sumo\demo.net.xml"/>
    </output>

    <processing>
        <geometry.min-radius.fix.railways value="false"/>
        <geometry.max-grade.fix value="false"/>
        <offset.disable-normalization value="true"/>
        <lefthand value="false"/>
    </processing>

    <junctions>
        <no-turnarounds value="true"/>
        <junctions.corner-detail value="5"/>
        <junctions.limit-turn-speed value="5.5"/>
        <rectangular-lane-cut value="false"/>
    </junctions>

    <pedestrian>
        <walkingareas value="false"/>
    </pedestrian>

    <report>
        <aggregate-warnings value="5"/>
    </report>

</configuration>
-->

<net version="1.9" junctionCornerDetail="5" limitTurnSpeed="5.50" xmlns:xsi="http://www.w3.org/2001/XMLSchema-instance" xsi:noNamespaceSchemaLocation="http://sumo.dlr.de/xsd/net_file.xsd">

    <location netOffset="0.00,0.00" convBoundary="-1200.92,-686.97,1636.06,2003.91" origBoundary="-10000000000.00,-10000000000.00,10000000000.00,10000000000.00" projParameter="!"/>

    <edge id=":gneJ23_0" function="internal">
        <lane id=":gneJ23_0_0" index="0" speed="6.59" length="9.28" shape="992.00,513.90 991.65,511.32 990.60,509.48 988.85,508.37 986.40,508.00"/>
    </edge>
    <edge id=":gneJ23_1" function="internal">
        <lane id=":gneJ23_1_0" index="0" speed="30.00" length="27.50" shape="995.20,513.90 995.20,486.40"/>
    </edge>
    <edge id=":gneJ23_2" function="internal">
        <lane id=":gneJ23_2_0" index="0" speed="10.32" length="24.87" shape="998.40,513.90 999.37,507.13 1002.29,502.36 1007.14,499.59 1013.95,498.83"/>
    </edge>
    <edge id=":gneJ23_3" function="internal">
        <lane id=":gneJ23_3_0" index="0" speed="6.44" length="9.03" shape="1013.65,508.43 1011.18,508.70 1009.41,509.71 1008.35,511.44 1008.00,513.90"/>
    </edge>
    <edge id=":gneJ23_4" function="internal">
        <lane id=":gneJ23_4_0" index="0" speed="21.95" length="27.35" shape="1013.75,505.23 986.40,504.80"/>
    </edge>
    <edge id=":gneJ23_5" function="internal">
        <lane id=":gneJ23_5_0" index="0" speed="10.56" length="24.89" shape="1013.85,502.03 1007.09,500.87 1002.26,497.88 999.37,493.06 998.40,486.40"/>
    </edge>
    <edge id=":gneJ23_6" function="internal">
        <lane id=":gneJ23_6_0" index="0" speed="6.81" length="9.75" shape="1008.00,486.40 1008.38,488.97 1009.54,490.83 1011.46,491.99 1014.14,492.44"/>
    </edge>
    <edge id=":gneJ23_7" function="internal">
        <lane id=":gneJ23_7_0" index="0" speed="30.00" length="27.50" shape="1004.80,486.40 1004.80,513.90"/>
    </edge>
    <edge id=":gneJ23_8" function="internal">
        <lane id=":gneJ23_8_0" index="0" speed="10.36" length="24.51" shape="1001.60,486.40 1000.65,493.05 997.80,497.80 993.05,500.65 986.40,501.60"/>
    </edge>
    <edge id=":gneJ23_9" function="internal">
        <lane id=":gneJ23_9_0" index="0" speed="6.51" length="9.03" shape="986.40,492.00 988.85,491.65 990.60,490.60 991.65,488.85 992.00,486.40"/>
    </edge>
    <edge id=":gneJ23_10" function="internal">
        <lane id=":gneJ23_10_0" index="0" speed="21.95" length="27.65" shape="986.40,495.20 1014.04,495.63"/>
    </edge>
    <edge id=":gneJ23_11" function="internal">
        <lane id=":gneJ23_11_0" index="0" speed="10.41" length="24.76" shape="986.40,498.40 993.05,499.37 997.80,502.28 1000.65,507.12 1001.60,513.90"/>
    </edge>
    <edge id=":gneJ25_0" function="internal">
        <lane id=":gneJ25_0_0" index="0" speed="6.54" length="9.14" shape="992.00,1013.74 991.65,1011.23 990.60,1009.44 988.85,1008.36 986.40,1008.00"/>
    </edge>
    <edge id=":gneJ25_1" function="internal">
        <lane id=":gneJ25_1_0" index="0" speed="21.95" length="27.34" shape="995.20,1013.74 995.20,986.40"/>
    </edge>
    <edge id=":gneJ25_2" function="internal">
        <lane id=":gneJ25_2_0" index="0" speed="10.34" length="24.68" shape="998.40,1013.74 999.36,1007.03 1002.24,1002.27 1007.04,999.46 1013.76,998.60"/>
    </edge>
    <edge id=":gneJ25_3" function="internal">
        <lane id=":gneJ25_3_0" index="0" speed="6.48" length="9.03" shape="1013.62,1008.20 1011.16,1008.51 1009.41,1009.54 1008.35,1011.29 1008.00,1013.74"/>
    </edge>
    <edge id=":gneJ25_4" function="internal">
        <lane id=":gneJ25_4_0" index="0" speed="21.95" length="27.27" shape="1013.67,1005.00 986.40,1004.80"/>
    </edge>
    <edge id=":gneJ25_5" function="internal">
        <lane id=":gneJ25_5_0" index="0" speed="10.45" length="24.69" shape="1013.72,1001.80 1007.01,1000.75 1002.23,997.84 999.36,993.05 998.40,986.40"/>
    </edge>
    <edge id=":gneJ25_6" function="internal">
        <lane id=":gneJ25_6_0" index="0" speed="6.65" length="9.37" shape="1008.00,986.40 1008.37,988.91 1009.46,990.71 1011.29,991.81 1013.85,992.20"/>
    </edge>
    <edge id=":gneJ25_7" function="internal">
        <lane id=":gneJ25_7_0" index="0" speed="21.95" length="27.34" shape="1004.80,986.40 1004.80,1013.74"/>
    </edge>
    <edge id=":gneJ25_8" function="internal">
        <lane id=":gneJ25_8_0" index="0" speed="10.36" length="24.51" shape="1001.60,986.40 1000.65,993.05 997.80,997.80 993.05,1000.65 986.40,1001.60"/>
    </edge>
    <edge id=":gneJ25_9" function="internal">
        <lane id=":gneJ25_9_0" index="0" speed="6.51" length="9.03" shape="986.40,992.00 988.85,991.65 990.60,990.60 991.65,988.85 992.00,986.40"/>
    </edge>
    <edge id=":gneJ25_10" function="internal">
        <lane id=":gneJ25_10_0" index="0" speed="21.95" length="27.41" shape="986.40,995.20 1013.81,995.40"/>
    </edge>
    <edge id=":gneJ25_11" function="internal">
        <lane id=":gneJ25_11_0" index="0" speed="10.39" length="24.63" shape="986.40,998.40 993.05,999.36 997.80,1002.24 1000.65,1007.03 1001.60,1013.74"/>
    </edge>
    <edge id=":gneJ27_0" function="internal">
        <lane id=":gneJ27_0_0" index="0" speed="6.51" length="9.03" shape="492.00,513.60 491.65,511.15 490.60,509.40 488.85,508.35 486.40,508.00"/>
    </edge>
    <edge id=":gneJ27_1" function="internal">
        <lane id=":gneJ27_1_0" index="0" speed="30.00" length="27.20" shape="495.20,513.60 495.20,486.40"/>
    </edge>
    <edge id=":gneJ27_2" function="internal">
        <lane id=":gneJ27_2_0" index="0" speed="10.36" length="24.51" shape="498.40,513.60 499.35,506.95 502.20,502.20 506.95,499.35 513.60,498.40"/>
    </edge>
    <edge id=":gneJ27_3" function="internal">
        <lane id=":gneJ27_3_0" index="0" speed="6.51" length="9.03" shape="513.60,508.00 511.15,508.35 509.40,509.40 508.35,511.15 508.00,513.60"/>
    </edge>
    <edge id=":gneJ27_4" function="internal">
        <lane id=":gneJ27_4_0" index="0" speed="30.00" length="27.20" shape="513.60,504.80 486.40,504.80"/>
    </edge>
    <edge id=":gneJ27_5" function="internal">
        <lane id=":gneJ27_5_0" index="0" speed="10.36" length="24.51" shape="513.60,501.60 506.95,500.65 502.20,497.80 499.35,493.05 498.40,486.40"/>
    </edge>
    <edge id=":gneJ27_6" function="internal">
        <lane id=":gneJ27_6_0" index="0" speed="6.51" length="9.03" shape="508.00,486.40 508.35,488.85 509.40,490.60 511.15,491.65 513.60,492.00"/>
    </edge>
    <edge id=":gneJ27_7" function="internal">
        <lane id=":gneJ27_7_0" index="0" speed="30.00" length="27.20" shape="504.80,486.40 504.80,513.60"/>
    </edge>
    <edge id=":gneJ27_8" function="internal">
        <lane id=":gneJ27_8_0" index="0" speed="10.36" length="24.51" shape="501.60,486.40 500.65,493.05 497.80,497.80 493.05,500.65 486.40,501.60"/>
    </edge>
    <edge id=":gneJ27_9" function="internal">
        <lane id=":gneJ27_9_0" index="0" speed="6.51" length="9.03" shape="486.40,492.00 488.85,491.65 490.60,490.60 491.65,488.85 492.00,486.40"/>
    </edge>
    <edge id=":gneJ27_10" function="internal">
        <lane id=":gneJ27_10_0" index="0" speed="30.00" length="27.20" shape="486.40,495.20 513.60,495.20"/>
    </edge>
    <edge id=":gneJ27_11" function="internal">
        <lane id=":gneJ27_11_0" index="0" speed="10.36" length="24.51" shape="486.40,498.40 493.05,499.35 497.80,502.20 500.65,506.95 501.60,513.60"/>
    </edge>
    <edge id=":gneJ28_0" function="internal">
        <lane id=":gneJ28_0_0" index="0" speed="6.51" length="9.03" shape="492.00,1013.60 491.65,1011.15 490.60,1009.40 488.85,1008.35 486.40,1008.00"/>
    </edge>
    <edge id=":gneJ28_1" function="internal">
        <lane id=":gneJ28_1_0" index="0" speed="21.95" length="27.20" shape="495.20,1013.60 495.20,986.40"/>
    </edge>
    <edge id=":gneJ28_2" function="internal">
        <lane id=":gneJ28_2_0" index="0" speed="10.36" length="24.51" shape="498.40,1013.60 499.35,1006.95 502.20,1002.20 506.95,999.35 513.60,998.40"/>
    </edge>
    <edge id=":gneJ28_3" function="internal">
        <lane id=":gneJ28_3_0" index="0" speed="6.51" length="9.03" shape="513.60,1008.00 511.15,1008.35 509.40,1009.40 508.35,1011.15 508.00,1013.60"/>
    </edge>
    <edge id=":gneJ28_4" function="internal">
        <lane id=":gneJ28_4_0" index="0" speed="30.00" length="27.20" shape="513.60,1004.80 486.40,1004.80"/>
    </edge>
    <edge id=":gneJ28_5" function="internal">
        <lane id=":gneJ28_5_0" index="0" speed="10.36" length="24.51" shape="513.60,1001.60 506.95,1000.65 502.20,997.80 499.35,993.05 498.40,986.40"/>
    </edge>
    <edge id=":gneJ28_6" function="internal">
        <lane id=":gneJ28_6_0" index="0" speed="6.51" length="9.03" shape="508.00,986.40 508.35,988.85 509.40,990.60 511.15,991.65 513.60,992.00"/>
    </edge>
    <edge id=":gneJ28_7" function="internal">
        <lane id=":gneJ28_7_0" index="0" speed="21.95" length="27.20" shape="504.80,986.40 504.80,1013.60"/>
    </edge>
    <edge id=":gneJ28_8" function="internal">
        <lane id=":gneJ28_8_0" index="0" speed="10.36" length="24.51" shape="501.60,986.40 500.65,993.05 497.80,997.80 493.05,1000.65 486.40,1001.60"/>
    </edge>
    <edge id=":gneJ28_9" function="internal">
        <lane id=":gneJ28_9_0" index="0" speed="6.51" length="9.03" shape="486.40,992.00 488.85,991.65 490.60,990.60 491.65,988.85 492.00,986.40"/>
    </edge>
    <edge id=":gneJ28_10" function="internal">
        <lane id=":gneJ28_10_0" index="0" speed="30.00" length="27.20" shape="486.40,995.20 513.60,995.20"/>
    </edge>
    <edge id=":gneJ28_11" function="internal">
        <lane id=":gneJ28_11_0" index="0" speed="10.36" length="24.51" shape="486.40,998.40 493.05,999.35 497.80,1002.20 500.65,1006.95 501.60,1013.60"/>
    </edge>
    <edge id=":gneJ29_0" function="internal">
        <lane id=":gneJ29_0_0" index="0" speed="6.51" length="9.03" shape="492.00,13.60 491.65,11.15 490.60,9.40 488.85,8.35 486.40,8.00"/>
    </edge>
    <edge id=":gneJ29_1" function="internal">
        <lane id=":gneJ29_1_0" index="0" speed="21.95" length="27.47" shape="495.20,13.60 495.46,-13.87"/>
    </edge>
    <edge id=":gneJ29_2" function="internal">
        <lane id=":gneJ29_2_0" index="0" speed="10.39" length="24.66" shape="498.40,13.60 499.36,6.95 502.25,2.20 507.05,-0.65 513.78,-1.60"/>
    </edge>
    <edge id=":gneJ29_3" function="internal">
        <lane id=":gneJ29_3_0" index="0" speed="6.55" length="9.18" shape="513.78,8.00 511.25,8.35 509.45,9.40 508.36,11.15 508.00,13.60"/>
    </edge>
    <edge id=":gneJ29_4" function="internal">
        <lane id=":gneJ29_4_0" index="0" speed="30.00" length="27.38" shape="513.78,4.80 486.40,4.80"/>
    </edge>
    <edge id=":gneJ29_5" function="internal">
        <lane id=":gneJ29_5_0" index="0" speed="10.34" length="24.73" shape="513.78,1.60 507.06,0.64 502.30,-2.25 499.50,-7.07 498.66,-13.81"/>
    </edge>
    <edge id=":gneJ29_6" function="internal">
        <lane id=":gneJ29_6_0" index="0" speed="6.47" length="9.03" shape="508.26,-13.63 508.56,-11.17 509.59,-9.41 511.33,-8.35 513.78,-8.00"/>
    </edge>
    <edge id=":gneJ29_7" function="internal">
        <lane id=":gneJ29_7_0" index="0" speed="21.95" length="27.29" shape="505.06,-13.69 504.80,13.60"/>
    </edge>
    <edge id=":gneJ29_8" function="internal">
        <lane id=":gneJ29_8_0" index="0" speed="10.48" length="24.74" shape="501.86,-13.75 500.78,-7.03 497.85,-2.24 493.05,0.64 486.40,1.60"/>
    </edge>
    <edge id=":gneJ29_9" function="internal">
        <lane id=":gneJ29_9_0" index="0" speed="6.69" length="9.47" shape="486.40,-8.00 488.92,-8.37 490.74,-9.48 491.85,-11.34 492.26,-13.93"/>
    </edge>
    <edge id=":gneJ29_10" function="internal">
        <lane id=":gneJ29_10_0" index="0" speed="30.00" length="27.38" shape="486.40,-4.80 513.78,-4.80"/>
    </edge>
    <edge id=":gneJ29_11" function="internal">
        <lane id=":gneJ29_11_0" index="0" speed="10.36" length="24.51" shape="486.40,-1.60 493.05,-0.65 497.80,2.20 500.65,6.95 501.60,13.60"/>
    </edge>
    <edge id=":gneJ30_0" function="internal">
        <lane id=":gneJ30_0_0" index="0" speed="6.55" length="9.16" shape="992.00,13.76 991.65,11.24 990.60,9.44 988.85,8.36 986.40,8.00"/>
    </edge>
    <edge id=":gneJ30_1" function="internal">
        <lane id=":gneJ30_1_0" index="0" speed="21.95" length="27.49" shape="995.20,13.76 995.47,-13.73"/>
    </edge>
    <edge id=":gneJ30_2" function="internal">
        <lane id=":gneJ30_2_0" index="0" speed="10.34" length="24.70" shape="998.40,13.76 999.36,7.04 1002.24,2.28 1007.05,-0.53 1013.78,-1.38"/>
    </edge>
    <edge id=":gneJ30_3" function="internal">
        <lane id=":gneJ30_3_0" index="0" speed="6.47" length="9.03" shape="1013.63,8.22 1011.16,8.53 1009.41,9.56 1008.35,11.30 1008.00,13.76"/>
    </edge>
    <edge id=":gneJ30_4" function="internal">
        <lane id=":gneJ30_4_0" index="0" speed="21.95" length="27.28" shape="1013.68,5.02 986.40,4.80"/>
    </edge>
    <edge id=":gneJ30_5" function="internal">
        <lane id=":gneJ30_5_0" index="0" speed="10.38" length="24.65" shape="1013.73,1.82 1007.03,0.76 1002.28,-2.17 999.50,-6.98 998.67,-13.67"/>
    </edge>
    <edge id=":gneJ30_6" function="internal">
        <lane id=":gneJ30_6_0" index="0" speed="6.53" length="9.13" shape="1008.27,-13.47 1008.58,-11.02 1009.62,-9.25 1011.38,-8.17 1013.88,-7.78"/>
    </edge>
    <edge id=":gneJ30_7" function="internal">
        <lane id=":gneJ30_7_0" index="0" speed="21.95" length="27.30" shape="1005.07,-13.54 1004.80,13.76"/>
    </edge>
    <edge id=":gneJ30_8" function="internal">
        <lane id=":gneJ30_8_0" index="0" speed="10.46" length="24.63" shape="1001.87,-13.60 1000.79,-6.95 997.85,-2.20 993.06,0.65 986.40,1.60"/>
    </edge>
    <edge id=":gneJ30_9" function="internal">
        <lane id=":gneJ30_9_0" index="0" speed="6.66" length="9.37" shape="986.40,-8.00 988.93,-8.36 990.75,-9.45 991.86,-11.26 992.27,-13.79"/>
    </edge>
    <edge id=":gneJ30_10" function="internal">
        <lane id=":gneJ30_10_0" index="0" speed="21.95" length="27.43" shape="986.40,-4.80 1013.83,-4.58"/>
    </edge>
    <edge id=":gneJ30_11" function="internal">
        <lane id=":gneJ30_11_0" index="0" speed="10.39" length="24.64" shape="986.40,-1.60 993.05,-0.64 997.80,2.24 1000.65,7.04 1001.60,13.76"/>
    </edge>
    <edge id=":gneJ32_0" function="internal">
        <lane id=":gneJ32_0_0" index="0" speed="6.51" length="9.03" shape="-8.00,513.60 -8.35,511.15 -9.40,509.40 -11.15,508.35 -13.60,508.00"/>
    </edge>
    <edge id=":gneJ32_1" function="internal">
        <lane id=":gneJ32_1_0" index="0" speed="30.00" length="27.20" shape="-4.80,513.60 -4.80,486.40"/>
    </edge>
    <edge id=":gneJ32_2" function="internal">
        <lane id=":gneJ32_2_0" index="0" speed="10.36" length="24.51" shape="-1.60,513.60 -0.65,506.95 2.20,502.20 6.95,499.35 13.60,498.40"/>
    </edge>
    <edge id=":gneJ32_3" function="internal">
        <lane id=":gneJ32_3_0" index="0" speed="6.51" length="9.03" shape="13.60,508.00 11.15,508.35 9.40,509.40 8.35,511.15 8.00,513.60"/>
    </edge>
    <edge id=":gneJ32_4" function="internal">
        <lane id=":gneJ32_4_0" index="0" speed="21.95" length="27.20" shape="13.60,504.80 -13.60,504.80"/>
    </edge>
    <edge id=":gneJ32_5" function="internal">
        <lane id=":gneJ32_5_0" index="0" speed="10.36" length="24.51" shape="13.60,501.60 6.95,500.65 2.20,497.80 -0.65,493.05 -1.60,486.40"/>
    </edge>
    <edge id=":gneJ32_6" function="internal">
        <lane id=":gneJ32_6_0" index="0" speed="6.51" length="9.03" shape="8.00,486.40 8.35,488.85 9.40,490.60 11.15,491.65 13.60,492.00"/>
    </edge>
    <edge id=":gneJ32_7" function="internal">
        <lane id=":gneJ32_7_0" index="0" speed="30.00" length="27.20" shape="4.80,486.40 4.80,513.60"/>
    </edge>
    <edge id=":gneJ32_8" function="internal">
        <lane id=":gneJ32_8_0" index="0" speed="10.36" length="24.51" shape="1.60,486.40 0.65,493.05 -2.20,497.80 -6.95,500.65 -13.60,501.60"/>
    </edge>
    <edge id=":gneJ32_9" function="internal">
        <lane id=":gneJ32_9_0" index="0" speed="6.51" length="9.03" shape="-13.60,492.00 -11.15,491.65 -9.40,490.60 -8.35,488.85 -8.00,486.40"/>
    </edge>
    <edge id=":gneJ32_10" function="internal">
        <lane id=":gneJ32_10_0" index="0" speed="21.95" length="27.20" shape="-13.60,495.20 13.60,495.20"/>
    </edge>
    <edge id=":gneJ32_11" function="internal">
        <lane id=":gneJ32_11_0" index="0" speed="10.36" length="24.51" shape="-13.60,498.40 -6.95,499.35 -2.20,502.20 0.65,506.95 1.60,513.60"/>
    </edge>
    <edge id=":gneJ33_0" function="internal">
        <lane id=":gneJ33_0_0" index="0" speed="6.50" length="9.03" shape="-8.00,1013.65 -8.35,1011.20 -9.40,1009.45 -11.15,1008.41 -13.61,1008.07"/>
    </edge>
    <edge id=":gneJ33_1" function="internal">
        <lane id=":gneJ33_1_0" index="0" speed="21.95" length="27.25" shape="-4.80,1013.65 -4.80,986.40"/>
    </edge>
    <edge id=":gneJ33_2" function="internal">
        <lane id=":gneJ33_2_0" index="0" speed="10.37" length="24.55" shape="-1.60,1013.65 -0.65,1006.98 2.20,1002.21 6.95,999.35 13.60,998.40"/>
    </edge>
    <edge id=":gneJ33_3" function="internal">
        <lane id=":gneJ33_3_0" index="0" speed="6.52" length="9.07" shape="13.60,1008.00 11.15,1008.35 9.40,1009.41 8.35,1011.18 8.00,1013.65"/>
    </edge>
    <edge id=":gneJ33_4" function="internal">
        <lane id=":gneJ33_4_0" index="0" speed="21.95" length="27.22" shape="13.60,1004.80 -13.62,1004.87"/>
    </edge>
    <edge id=":gneJ33_5" function="internal">
        <lane id=":gneJ33_5_0" index="0" speed="10.36" length="24.51" shape="13.60,1001.60 6.95,1000.65 2.20,997.80 -0.65,993.05 -1.60,986.40"/>
    </edge>
    <edge id=":gneJ33_6" function="internal">
        <lane id=":gneJ33_6_0" index="0" speed="6.51" length="9.03" shape="8.00,986.40 8.35,988.85 9.40,990.60 11.15,991.65 13.60,992.00"/>
    </edge>
    <edge id=":gneJ33_7" function="internal">
        <lane id=":gneJ33_7_0" index="0" speed="21.95" length="27.25" shape="4.80,986.40 4.80,1013.65"/>
    </edge>
    <edge id=":gneJ33_8" function="internal">
        <lane id=":gneJ33_8_0" index="0" speed="10.39" length="24.57" shape="1.60,986.40 0.65,993.05 -2.21,997.81 -6.97,1000.69 -13.64,1001.67"/>
    </edge>
    <edge id=":gneJ33_9" function="internal">
        <lane id=":gneJ33_9_0" index="0" speed="6.56" length="9.15" shape="-13.69,992.07 -11.20,991.70 -9.42,990.64 -8.36,988.87 -8.00,986.40"/>
    </edge>
    <edge id=":gneJ33_10" function="internal">
        <lane id=":gneJ33_10_0" index="0" speed="21.95" length="27.27" shape="-13.67,995.27 13.60,995.20"/>
    </edge>
    <edge id=":gneJ33_11" function="internal">
        <lane id=":gneJ33_11_0" index="0" speed="10.36" length="24.57" shape="-13.66,998.47 -6.98,999.39 -2.21,1002.22 0.65,1006.98 1.60,1013.65"/>
    </edge>
    <edge id=":gneJ34_0" function="internal">
        <lane id=":gneJ34_0_0" index="0" speed="6.51" length="9.04" shape="-8.00,13.60 -8.35,11.15 -9.40,9.40 -11.16,8.35 -13.62,8.00"/>
    </edge>
    <edge id=":gneJ34_1" function="internal">
        <lane id=":gneJ34_1_0" index="0" speed="21.95" length="27.21" shape="-4.80,13.60 -4.82,-13.61"/>
    </edge>
    <edge id=":gneJ34_2" function="internal">
        <lane id=":gneJ34_2_0" index="0" speed="10.36" length="24.51" shape="-1.60,13.60 -0.65,6.95 2.20,2.20 6.95,-0.65 13.60,-1.60"/>
    </edge>
    <edge id=":gneJ34_3" function="internal">
        <lane id=":gneJ34_3_0" index="0" speed="6.51" length="9.03" shape="13.60,8.00 11.15,8.35 9.40,9.40 8.35,11.15 8.00,13.60"/>
    </edge>
    <edge id=":gneJ34_4" function="internal">
        <lane id=":gneJ34_4_0" index="0" speed="21.95" length="27.22" shape="13.60,4.80 -13.62,4.80"/>
    </edge>
    <edge id=":gneJ34_5" function="internal">
        <lane id=":gneJ34_5_0" index="0" speed="10.37" length="24.53" shape="13.60,1.60 6.95,0.65 2.20,-2.20 -0.66,-6.96 -1.62,-13.61"/>
    </edge>
    <edge id=":gneJ34_6" function="internal">
        <lane id=":gneJ34_6_0" index="0" speed="6.52" length="9.07" shape="7.98,-13.63 8.33,-11.17 9.39,-9.41 11.14,-8.35 13.60,-8.00"/>
    </edge>
    <edge id=":gneJ34_7" function="internal">
        <lane id=":gneJ34_7_0" index="0" speed="21.95" length="27.22" shape="4.78,-13.62 4.80,13.60"/>
    </edge>
    <edge id=":gneJ34_8" function="internal">
        <lane id=":gneJ34_8_0" index="0" speed="10.36" length="24.53" shape="1.58,-13.62 0.64,-6.96 -2.21,-2.20 -6.96,0.65 -13.62,1.60"/>
    </edge>
    <edge id=":gneJ34_9" function="internal">
        <lane id=":gneJ34_9_0" index="0" speed="6.50" length="9.03" shape="-13.62,-8.00 -11.17,-8.35 -9.42,-9.40 -8.37,-11.15 -8.02,-13.60"/>
    </edge>
    <edge id=":gneJ34_10" function="internal">
        <lane id=":gneJ34_10_0" index="0" speed="21.95" length="27.22" shape="-13.62,-4.80 13.60,-4.80"/>
    </edge>
    <edge id=":gneJ34_11" function="internal">
        <lane id=":gneJ34_11_0" index="0" speed="10.37" length="24.53" shape="-13.62,-1.60 -6.96,-0.65 -2.20,2.20 0.65,6.95 1.60,13.60"/>
    </edge>
    <edge id=":gneJ48_0" function="internal">
        <lane id=":gneJ48_0_0" index="0" speed="6.51" length="9.03" shape="-8.01,1513.60 -8.36,1511.15 -9.41,1509.40 -11.16,1508.35 -13.61,1508.00"/>
    </edge>
    <edge id=":gneJ48_1" function="internal">
        <lane id=":gneJ48_1_0" index="0" speed="13.89" length="27.20" shape="-4.81,1513.60 -4.80,1486.40"/>
    </edge>
    <edge id=":gneJ48_2" function="internal">
        <lane id=":gneJ48_2_0" index="0" speed="10.37" length="24.52" shape="-1.61,1513.60 -0.65,1506.95 2.20,1502.20 6.95,1499.35 13.60,1498.40"/>
    </edge>
    <edge id=":gneJ48_3" function="internal">
        <lane id=":gneJ48_3_0" index="0" speed="6.51" length="9.04" shape="13.60,1508.00 11.15,1508.35 9.40,1509.40 8.34,1511.16 7.99,1513.61"/>
    </edge>
    <edge id=":gneJ48_4" function="internal">
        <lane id=":gneJ48_4_0" index="0" speed="13.89" length="27.21" shape="13.60,1504.80 -13.61,1504.80"/>
    </edge>
    <edge id=":gneJ48_5" function="internal">
        <lane id=":gneJ48_5_0" index="0" speed="10.36" length="24.51" shape="13.60,1501.60 6.95,1500.65 2.20,1497.80 -0.65,1493.05 -1.60,1486.40"/>
    </edge>
    <edge id=":gneJ48_6" function="internal">
        <lane id=":gneJ48_6_0" index="0" speed="6.51" length="9.03" shape="8.00,1486.40 8.35,1488.85 9.40,1490.60 11.15,1491.65 13.60,1492.00"/>
    </edge>
    <edge id=":gneJ48_7" function="internal">
        <lane id=":gneJ48_7_0" index="0" speed="13.89" length="27.21" shape="4.80,1486.40 4.79,1513.61"/>
    </edge>
    <edge id=":gneJ48_8" function="internal">
        <lane id=":gneJ48_8_0" index="0" speed="10.36" length="24.52" shape="1.60,1486.40 0.65,1493.05 -2.20,1497.80 -6.95,1500.65 -13.61,1501.60"/>
    </edge>
    <edge id=":gneJ48_9" function="internal">
        <lane id=":gneJ48_9_0" index="0" speed="6.51" length="9.04" shape="-13.61,1492.00 -11.15,1491.65 -9.40,1490.60 -8.35,1488.85 -8.00,1486.40"/>
    </edge>
    <edge id=":gneJ48_10" function="internal">
        <lane id=":gneJ48_10_0" index="0" speed="13.89" length="27.21" shape="-13.61,1495.20 13.60,1495.20"/>
    </edge>
    <edge id=":gneJ48_11" function="internal">
        <lane id=":gneJ48_11_0" index="0" speed="10.36" length="24.52" shape="-13.61,1498.40 -6.95,1499.35 -2.20,1502.20 0.65,1506.95 1.59,1513.61"/>
    </edge>
    <edge id=":gneJ50_0" function="internal">
        <lane id=":gneJ50_0_0" index="0" speed="6.50" length="9.03" shape="-508.00,1016.14 -508.35,1013.69 -509.40,1011.94 -511.15,1010.90 -513.61,1010.56"/>
    </edge>
    <edge id=":gneJ50_1" function="internal">
        <lane id=":gneJ50_1_0" index="0" speed="13.89" length="27.30" shape="-504.80,1016.14 -504.80,988.84"/>
    </edge>
    <edge id=":gneJ50_2" function="internal">
        <lane id=":gneJ50_2_0" index="0" speed="10.40" length="24.61" shape="-501.60,1016.14 -500.65,1009.47 -497.79,1004.69 -493.03,1001.81 -486.36,1000.82"/>
    </edge>
    <edge id=":gneJ50_3" function="internal">
        <lane id=":gneJ50_3_0" index="0" speed="6.57" length="9.19" shape="-486.31,1010.42 -488.80,1010.79 -490.58,1011.87 -491.64,1013.65 -492.00,1016.14"/>
    </edge>
    <edge id=":gneJ50_4" function="internal">
        <lane id=":gneJ50_4_0" index="0" speed="13.89" length="27.30" shape="-486.33,1007.22 -513.63,1007.36"/>
    </edge>
    <edge id=":gneJ50_5" function="internal">
        <lane id=":gneJ50_5_0" index="0" speed="10.36" length="24.57" shape="-486.34,1004.02 -493.02,1003.10 -497.79,1000.27 -500.65,995.51 -501.60,988.84"/>
    </edge>
    <edge id=":gneJ50_6" function="internal">
        <lane id=":gneJ50_6_0" index="0" speed="6.50" length="9.03" shape="-492.00,988.84 -491.65,991.29 -490.60,993.04 -488.85,994.08 -486.39,994.42"/>
    </edge>
    <edge id=":gneJ50_7" function="internal">
        <lane id=":gneJ50_7_0" index="0" speed="13.89" length="27.30" shape="-495.20,988.84 -495.20,1016.14"/>
    </edge>
    <edge id=":gneJ50_8" function="internal">
        <lane id=":gneJ50_8_0" index="0" speed="10.40" length="24.62" shape="-498.40,988.84 -499.35,995.51 -502.21,1000.29 -506.97,1003.17 -513.64,1004.16"/>
    </edge>
    <edge id=":gneJ50_9" function="internal">
        <lane id=":gneJ50_9_0" index="0" speed="6.57" length="9.19" shape="-513.69,994.56 -511.20,994.19 -509.42,993.12 -508.36,991.33 -508.00,988.84"/>
    </edge>
    <edge id=":gneJ50_10" function="internal">
        <lane id=":gneJ50_10_0" index="0" speed="13.89" length="27.30" shape="-513.68,997.76 -486.38,997.62"/>
    </edge>
    <edge id=":gneJ50_11" function="internal">
        <lane id=":gneJ50_11_0" index="0" speed="10.36" length="24.57" shape="-513.66,1000.96 -506.98,1001.88 -502.21,1004.72 -499.35,1009.47 -498.40,1016.14"/>
    </edge>
    <edge id=":gneJ51_0" function="internal">
        <lane id=":gneJ51_0_0" index="0" speed="6.87" length="9.90" shape="513.60,1508.00 511.01,1508.39 509.12,1509.56 507.94,1511.52 507.47,1514.26"/>
    </edge>
    <edge id=":gneJ51_1" function="internal">
        <lane id=":gneJ51_1_0" index="0" speed="13.89" length="27.57" shape="513.60,1504.80 486.03,1504.80"/>
    </edge>
    <edge id=":gneJ51_2" function="internal">
        <lane id=":gneJ51_2_0" index="0" speed="10.36" length="24.51" shape="513.60,1501.60 506.95,1500.65 502.20,1497.80 499.35,1493.05 498.40,1486.40"/>
    </edge>
    <edge id=":gneJ51_3" function="internal">
        <lane id=":gneJ51_3_0" index="0" speed="6.51" length="9.03" shape="508.00,1486.40 508.35,1488.85 509.40,1490.60 511.15,1491.65 513.60,1492.00"/>
    </edge>
    <edge id=":gneJ51_4" function="internal">
        <lane id=":gneJ51_4_0" index="0" speed="13.89" length="27.74" shape="504.80,1486.40 504.27,1514.14"/>
    </edge>
    <edge id=":gneJ51_5" function="internal">
        <lane id=":gneJ51_5_0" index="0" speed="10.42" length="24.81" shape="501.60,1486.40 500.63,1493.05 497.71,1497.80 492.84,1500.65 486.03,1501.60"/>
    </edge>
    <edge id=":gneJ51_6" function="internal">
        <lane id=":gneJ51_6_0" index="0" speed="6.60" length="9.33" shape="486.03,1492.00 488.64,1491.65 490.51,1490.60 491.63,1488.85 492.00,1486.40"/>
    </edge>
    <edge id=":gneJ51_7" function="internal">
        <lane id=":gneJ51_7_0" index="0" speed="13.89" length="27.57" shape="486.03,1495.20 513.60,1495.20"/>
    </edge>
    <edge id=":gneJ51_8" function="internal">
        <lane id=":gneJ51_8_0" index="0" speed="10.31" length="24.94" shape="486.03,1498.40 492.83,1499.38 497.61,1502.30 500.35,1507.18 501.08,1514.02"/>
    </edge>
    <edge id=":gneJ51_9" function="internal">
        <lane id=":gneJ51_9_0" index="0" speed="6.43" length="9.03" shape="491.48,1513.66 491.22,1511.18 490.23,1509.41 488.50,1508.35 486.03,1508.00"/>
    </edge>
    <edge id=":gneJ51_10" function="internal">
        <lane id=":gneJ51_10_0" index="0" speed="13.89" length="27.38" shape="494.68,1513.78 495.20,1486.40"/>
    </edge>
    <edge id=":gneJ51_11" function="internal">
        <lane id=":gneJ51_11_0" index="0" speed="10.60" length="24.97" shape="497.88,1513.90 499.08,1507.12 502.10,1502.27 506.94,1499.37 513.60,1498.40"/>
    </edge>
    <edge id=":gneJ52_0" function="internal">
        <lane id=":gneJ52_0_0" index="0" speed="6.52" length="9.06" shape="992.00,1513.64 991.65,1511.17 990.60,1509.41 988.85,1508.35 986.40,1508.00"/>
    </edge>