<?xml version="1.0" encoding="UTF-8"?>

<!-- generated on 2022-05-16 12:52:50 by Eclipse SUMO netedit Version 1.10.0
<configuration xmlns:xsi="http://www.w3.org/2001/XMLSchema-instance" xsi:noNamespaceSchemaLocation="http://sumo.dlr.de/xsd/netconvertConfiguration.xsd">

    <input>
        <sumo-net-file value="F:\learn_science\sumo\KDGAN-CSR\assets\sumo\net.net.xml"/>
    </input>

    <output>
        <output-file value="F:\learn_science\sumo\KDGAN-CSR\assets\sumo\net.net.xml"/>
    </output>

    <processing>
        <geometry.min-radius.fix.railways value="false"/>
        <geometry.max-grade.fix value="false"/>
        <offset.disable-normalization value="true"/>
        <lefthand value="false"/>
    </processing>

    <junctions>
        <no-internal-links value="true"/>
        <no-turnarounds value="true"/>
        <junctions.corner-detail value="5"/>
        <junctions.limit-turn-speed value="5.5"/>
        <rectangular-lane-cut value="false"/>
    </junctions>

    <pedestrian>
        <walkingareas value="false"/>
    </pedestrian>

    <report>
        <aggregate-warnings value="5"/>
    </report>

</configuration>
-->

<net version="1.9" junctionCornerDetail="5" limitTurnSpeed="5.50" xmlns:xsi="http://www.w3.org/2001/XMLSchema-instance" xsi:noNamespaceSchemaLocation="http://sumo.dlr.de/xsd/net_file.xsd">

    <location netOffset="0.00,0.00" convBoundary="0.00,0.00,200.00,200.00" origBoundary="-10000000000.00,-10000000000.00,10000000000.00,10000000000.00" projParameter="!"/>

    <edge id="-gneE2" from="gneJ3" to="gneJ2" priority="-1">
        <lane id="-gneE2_0" index="0" speed="13.89" length="200.00" shape="190.40,8.00 0.00,8.00"/>
        <lane id="-gneE2_1" index="1" speed="13.89" length="200.00" shape="190.40,4.80 0.00,4.80"/>
        <lane id="-gneE2_2" index="2" speed="13.89" length="200.00" shape="190.40,1.60 0.00,1.60"/>
    </edge>
    <edge id="-gneE3" from="gneJ4" to="gneJ3" priority="-1">
        <lane id="-gneE3_0" index="0" speed="13.89" length="200.00" shape="192.00,200.00 192.00,9.60"/>
        <lane id="-gneE3_1" index="1" speed="13.89" length="200.00" shape="195.20,200.00 195.20,9.60"/>
        <lane id="-gneE3_2" index="2" speed="13.89" length="200.00" shape="198.40,200.00 198.40,9.60"/>
    </edge>
    <edge id="gneE2" from="gneJ2" to="gneJ3" priority="-1">
        <lane id="gneE2_0" index="0" speed="13.89" length="200.00" shape="0.00,-8.00 190.40,-8.00"/>
        <lane id="gneE2_1" index="1" speed="13.89" length="200.00" shape="0.00,-4.80 190.40,-4.80"/>
        <lane id="gneE2_2" index="2" speed="13.89" length="200.00" shape="0.00,-1.60 190.40,-1.60"/>
    </edge>
    <edge id="gneE3" from="gneJ3" to="gneJ4" priority="-1">
        <lane id="gneE3_0" index="0" speed="13.89" length="200.00" shape="208.00,9.60 208.00,200.00"/>
        <lane id="gneE3_1" index="1" speed="13.89" length="200.00" shape="204.80,9.60 204.80,200.00"/>
        <lane id="gneE3_2" index="2" speed="13.89" length="200.00" shape="201.60,9.60 201.60,200.00"/>
    </edge>

    <junction id="gneJ2" type="dead_end" x="0.00" y="0.00" incLanes="-gneE2_0 -gneE2_1 -gneE2_2" intLanes="" shape="0.00,0.00 0.00,9.60 0.00,0.00"/>
    <junction id="gneJ3" type="priority" x="200.00" y="0.00" incLanes="-gneE3_0 -gneE3_1 -gneE3_2 gneE2_0 gneE2_1 gneE2_2" intLanes="" shape="190.40,9.60 209.60,9.60 209.07,3.73 207.47,-1.07 204.80,-4.80 201.07,-7.47 196.27,-9.07 190.40,-9.60">
        <request index="0" response="000000" foes="000000"/>
        <request index="1" response="000000" foes="000000"/>
        <request index="2" response="000000" foes="000000"/>
        <request index="3" response="000000" foes="000000"/>
        <request index="4" response="000000" foes="000000"/>
        <request index="5" response="000000" foes="000000"/>
    </junction>
    <junction id="gneJ4" type="dead_end" x="200.00" y="200.00" incLanes="gneE3_0 gneE3_1 gneE3_2" intLanes="" shape="200.00,200.00 209.60,200.00 200.00,200.00"/>

    <connection from="-gneE3" to="-gneE2" fromLane="0" toLane="0" dir="r" state="M"/>
    <connection from="-gneE3" to="-gneE2" fromLane="1" toLane="1" dir="r" state="M"/>
    <connection from="-gneE3" to="-gneE2" fromLane="2" toLane="2" dir="r" state="M"/>
    <connection from="gneE2" to="gneE3" fromLane="0" toLane="0" dir="l" state="M"/>
    <connection from="gneE2" to="gneE3" fromLane="1" toLane="1" dir="l" state="M"/>
    <connection from="gneE2" to="gneE3" fromLane="2" toLane="2" dir="l" state="M"/>

</net>
