<?xml version="1.0" encoding="UTF-8"?>
<!-- generated on 2022-05-06 14:47:55.724591 by $Id$ v1_10_0+0000-83496a5972
  options: -n ./net.net.xml -l -e 20000 -o net.trips.xml
-->
<routes xmlns:xsi="http://www.w3.org/2001/XMLSchema-instance" xsi:noNamespaceSchemaLocation="http://sumo.dlr.de/xsd/routes_file.xsd">
</routes>
