<?xml version="1.0" encoding="UTF-8"?>

<!-- generated on 2022-07-21 16:04:58 by Eclipse SUMO duarouter Version 1.10.0
<configuration xmlns:xsi="http://www.w3.org/2001/XMLSchema-instance" xsi:noNamespaceSchemaLocation="http://sumo.dlr.de/xsd/duarouterConfiguration.xsd">

    <input>
        <net-file value="demo.net.xml"/>
        <route-files value="test.trips.xml"/>
    </input>

    <output>
        <output-file value="test.rou.xml"/>
        <alternatives-output value="test.rou.alt.xml"/>
    </output>

    <report>
        <ignore-errors value="true"/>
    </report>

</configuration>
-->

<routes xmlns:xsi="http://www.w3.org/2001/XMLSchema-instance" xsi:noNamespaceSchemaLocation="http://sumo.dlr.de/xsd/routes_file.xsd">
    <vehicle id="0" depart="0.00">
        <route edges="-gneE72 -gneE38 -gneE35 -gneE27"/>
    </vehicle>
    <vehicle id="1" depart="0.36">
        <route edges="-gneE48 gneE50 gneE51 -gneE43"/>
    </vehicle>
    <vehicle id="2" depart="0.72">
        <route edges="gneE31 gneE32 gneE24 -gneE29 -gneE37 gneE40 gneE53"/>
    </vehicle>
    <vehicle id="3" depart="1.08">
        <route edges="gneE44 -gneE52 -gneE41 gneE37 gneE29 -gneE24 -gneE32"/>
    </vehicle>
    <vehicle id="4" depart="1.44">
        <route edges="-gneE58 -gneE39 -gneE38 gneE36 gneE37 -gneE28"/>
    </vehicle>
    <vehicle id="5" depart="1.80">
        <route edges="-gneE43 -gneE29 -gneE37 gneE40"/>
    </vehicle>
    <vehicle id="6" depart="2.16">
        <route edges="-gneE27 gneE24 gneE43 -gneE51 -gneE42"/>
    </vehicle>
    <vehicle id="7" depart="2.52">
        <route edges="-gneE72 -gneE38 gneE36 gneE37 gneE29 gneE43"/>
    </vehicle>
    <vehicle id="8" depart="2.88">
        <route edges="-gneE43 -gneE24 -gneE32 -gneE31 -gneE39 gneE45 gneE46"/>
    </vehicle>
    <vehicle id="9" depart="3.24">
        <route edges="gneE38 gneE39 -gneE30 gneE28 gneE29 -gneE24"/>
    </vehicle>
    <vehicle id="10" depart="3.60">
        <route edges="gneE38 gneE39 gneE31 gneE32 gneE24 gneE55"/>
    </vehicle>
    <vehicle id="11" depart="3.96">
        <route edges="-gneE53 -gneE40 gneE37 -gneE28 gneE30 -gneE39"/>
    </vehicle>
    <vehicle id="12" depart="4.32">
        <route edges="gneE49 -gneE41 -gneE36 -gneE35 -gneE27 gneE24"/>
    </vehicle>
    <vehicle id="13" depart="4.68">
        <route edges="-gneE32"/>
    </vehicle>
    <vehicle id="14" depart="5.04">
        <route edges="gneE41 gneE52 -gneE44 gneE36 gneE40 gneE48"/>
    </vehicle>
    <vehicle id="15" depart="5.40">
        <route edges="gneE38 gneE39 gneE31 gneE32 gneE57"/>
    </vehicle>
    <vehicle id="16" depart="5.76">
        <route edges="-gneE67 -gneE31 -gneE39 gneE72"/>
    </vehicle>
    <vehicle id="17" depart="6.12">
        <route edges="-gneE55 gneE43"/>
    </vehicle>
    <vehicle id="18" depart="6.48">
        <route edges="gneE39 -gneE30 gneE28 -gneE37 gneE40 gneE48 gneE49"/>
    </vehicle>
    <vehicle id="19" depart="6.84">
        <route edges="gneE42 -gneE50 -gneE40 -gneE36 gneE38 gneE45"/>
    </vehicle>
    <vehicle id="20" depart="7.20">
        <route edges="gneE28 -gneE37 -gneE36 -gneE35 -gneE27 gneE24 -gneE29"/>
    </vehicle>
    <vehicle id="21" depart="7.56">
        <route edges="-gneE44 gneE36 gneE41 -gneE49"/>
    </vehicle>
    <vehicle id="22" depart="7.92">
        <route edges="-gneE31 -gneE39 gneE45 gneE46 -gneE44"/>
    </vehicle>
    <vehicle id="23" depart="8.28">
        <route edges="-gneE35 gneE28 -gneE37 gneE41 -gneE49 -gneE48"/>
    </vehicle>
    <vehicle id="24" depart="8.64">
        <route edges="-gneE71 -gneE48 -gneE40 -gneE36 -gneE35 gneE28"/>
    </vehicle>
    <vehicle id="25" depart="9.00">
        <route edges="-gneE55 gneE43 -gneE51 -gneE42"/>
    </vehicle>
    <vehicle id="26" depart="9.36">
        <route edges="-gneE48 -gneE40 gneE41 -gneE49 gneE70"/>
    </vehicle>
    <vehicle id="27" depart="9.72">
        <route edges="-gneE72 -gneE38 gneE36 gneE40 gneE48"/>
    </vehicle>
    <vehicle id="28" depart="10.08">
        <route edges="-gneE40 -gneE36 -gneE35 -gneE27 gneE57"/>
    </vehicle>
    <vehicle id="29" depart="10.44">
        <route edges="-gneE39 -gneE38 gneE36 gneE37 gneE29"/>
    </vehicle>
    <vehicle id="30" depart="10.80">
        <route edges="gneE52 -gneE44 gneE36 gneE40 gneE50"/>
    </vehicle>
    <vehicle id="31" depart="11.16">
        <route edges="-gneE68 -gneE45 gneE39 -gneE30 gneE28 gneE42 gneE54"/>
    </vehicle>
    <vehicle id="32" depart="11.52">
        <route edges="gneE40 gneE48 gneE49 gneE52 gneE60"/>
    </vehicle>
    <vehicle id="33" depart="11.88">
        <route edges="-gneE44 gneE36 gneE37 -gneE28"/>
    </vehicle>
    <vehicle id="34" depart="12.24">
        <route edges="-gneE51 -gneE42 -gneE37 gneE41 -gneE49 -gneE48"/>
    </vehicle>
    <vehicle id="35" depart="12.60">
        <route edges="-gneE43 -gneE29 -gneE37 gneE41 -gneE49 gneE70"/>
    </vehicle>
    <vehicle id="36" depart="12.96">
        <route edges="gneE43 -gneE51"/>
    </vehicle>
    <vehicle id="37" depart="13.32">
        <route edges="-gneE72 -gneE38 -gneE35 gneE30"/>
    </vehicle>
    <vehicle id="38" depart="13.68">
        <route edges="gneE45 gneE46 -gneE44 gneE36"/>
    </vehicle>
    <vehicle id="39" depart="14.04">
        <route edges="-gneE46 -gneE45"/>
    </vehicle>
    <vehicle id="40" depart="14.40">
        <route edges="-gneE68 -gneE45 -gneE38 gneE44 -gneE46"/>
    </vehicle>
    <vehicle id="41" depart="14.76">
        <route edges="-gneE69 gneE68"/>
    </vehicle>
    <vehicle id="42" depart="15.12">
        <route edges="-gneE57 gneE27 gneE28 gneE42 gneE51 -gneE43"/>
    </vehicle>
    <vehicle id="43" depart="15.48">
        <route edges="gneE52 -gneE44 gneE36 gneE40"/>
    </vehicle>
    <vehicle id="44" depart="15.84">
        <route edges="-gneE32 -gneE31 -gneE30 -gneE27 gneE24 -gneE29"/>
    </vehicle>
    <vehicle id="45" depart="16.20">
        <route edges="-gneE35 gneE28 -gneE37 gneE40 gneE48 gneE49"/>
    </vehicle>
    <vehicle id="46" depart="16.56">
        <route edges="gneE37 -gneE28 gneE30 gneE31 gneE32"/>
    </vehicle>
    <vehicle id="47" depart="16.92">
        <route edges="-gneE30 gneE28 gneE29"/>
    </vehicle>
    <vehicle id="48" depart="17.28">
        <route edges="gneE52 -gneE44 gneE36 gneE41"/>
    </vehicle>
    <vehicle id="49" depart="17.64">
        <route edges="gneE50 -gneE42 gneE29 -gneE24 -gneE32 gneE67"/>
    </vehicle>
    <vehicle id="50" depart="18.00">
        <route edges="-gneE24 gneE57"/>
    </vehicle>
    <vehicle id="51" depart="18.36">
        <route edges="gneE27 gneE28 gneE42"/>
    </vehicle>
    <vehicle id="52" depart="18.72">
        <route edges="-gneE48 gneE50"/>
    </vehicle>
    <vehicle id="53" depart="19.08">
        <route edges="-gneE35 gneE28 gneE29 -gneE24 gneE27 gneE35"/>
    </vehicle>
    <vehicle id="54" depart="19.44">
        <route edges="-gneE61 -gneE49 gneE71"/>
    </vehicle>
    <vehicle id="55" depart="19.80">
        <route edges="gneE43 -gneE51 -gneE42 -gneE28 gneE35 gneE44 -gneE46"/>
    </vehicle>
    <vehicle id="56" depart="20.16">
        <route edges="-gneE65 -gneE51 -gneE50 -gneE40"/>
    </vehicle>
    <vehicle id="57" depart="20.52">
        <route edges="gneE45 gneE46 -gneE44 -gneE35 -gneE27 -gneE32 gneE67"/>
    </vehicle>
    <vehicle id="58" depart="20.88">
        <route edges="-gneE50 -gneE40 gneE37 -gneE28 gneE35 gneE36 gneE40 gneE50"/>
    </vehicle>
    <vehicle id="59" depart="21.24">
        <route edges="-gneE70 gneE49 -gneE41 gneE37 -gneE28 gneE30 -gneE39 -gneE38"/>
    </vehicle>
    <vehicle id="60" depart="21.60">
        <route edges="gneE35 gneE36 gneE37 gneE42"/>
    </vehicle>
    <vehicle id="61" depart="21.96">
        <route edges="gneE36 gneE41"/>
    </vehicle>
    <vehicle id="62" depart="22.32">
        <route edges="-gneE24 gneE27 gneE35 gneE44 -gneE52"/>
    </vehicle>
    <vehicle id="63" depart="22.68">
        <route edges="-gneE27 gneE24 -gneE29 -gneE37 gneE41 -gneE49 gneE70"/>
    </vehicle>
    <vehicle id="64" depart="23.04">
        <route edges="gneE43 gneE65"/>
    </vehicle>
    <vehicle id="65" depart="23.40">
        <route edges="-gneE51 -gneE42 gneE29 -gneE24 -gneE32 -gneE31 -gneE30"/>
    </vehicle>
    <vehicle id="66" depart="23.76">
        <route edges="gneE43 -gneE51 -gneE50 gneE48 gneE70"/>
    </vehicle>
    <vehicle id="67" depart="24.12">
        <route edges="-gneE32 -gneE31 -gneE30 gneE35 gneE38"/>
    </vehicle>
    <vehicle id="68" depart="24.48">
        <route edges="-gneE30 gneE35 gneE44 gneE60"/>
    </vehicle>
    <vehicle id="69" depart="24.84">
        <route edges="gneE35 gneE38 gneE39 -gneE30 gneE28 -gneE37"/>
    </vehicle>
    <vehicle id="70" depart="25.20">
        <route edges="-gneE64 -gneE51 -gneE42 gneE29 gneE43"/>
    </vehicle>
    <vehicle id="71" depart="25.56">
        <route edges="-gneE46 -gneE45 gneE39 gneE31 gneE67"/>
    </vehicle>
    <vehicle id="72" depart="25.92">
        <route edges="-gneE58 -gneE30 gneE28 gneE42 gneE51 -gneE43"/>
    </vehicle>
    <vehicle id="73" depart="26.28">
        <route edges="-gneE67 gneE32 gneE57"/>
    </vehicle>
    <vehicle id="74" depart="26.64">
        <route edges="-gneE42 gneE29 gneE43 -gneE51"/>
    </vehicle>
    <vehicle id="75" depart="27.00">
        <route edges="gneE52 -gneE44 -gneE35 gneE28 gneE42 gneE51"/>
    </vehicle>
    <vehicle id="76" depart="27.36">
        <route edges="-gneE60 -gneE44 gneE36 gneE41"/>
    </vehicle>
    <vehicle id="77" depart="27.72">
        <route edges="-gneE36 gneE38 gneE45 gneE46 -gneE44"/>
    </vehicle>
    <vehicle id="78" depart="28.08">
        <route edges="-gneE53 -gneE40 -gneE36 gneE38 gneE45 gneE46"/>
    </vehicle>
    <vehicle id="79" depart="28.44">
        <route edges="-gneE44 -gneE35 gneE28 gneE42 gneE51 -gneE43"/>
    </vehicle>
    <vehicle id="80" depart="28.80">
        <route edges="-gneE31 -gneE39 -gneE38 gneE36 gneE40 gneE50"/>
    </vehicle>
    <vehicle id="81" depart="29.16">
        <route edges="-gneE44 gneE38 gneE45 gneE69"/>
    </vehicle>
    <vehicle id="82" depart="29.52">
        <route edges="gneE41 gneE52 -gneE44 -gneE35 -gneE27 -gneE32 -gneE31"/>
    </vehicle>
    <vehicle id="83" depart="29.88">
        <route edges="-gneE45 -gneE38 gneE36 gneE41 gneE52"/>
    </vehicle>
    <vehicle id="84" depart="30.24">
        <route edges="-gneE43 -gneE29 -gneE37"/>
    </vehicle>
    <vehicle id="85" depart="30.60">
        <route edges="gneE48 gneE49 -gneE41 -gneE36 gneE44"/>
    </vehicle>
    <vehicle id="86" depart="30.96">
        <route edges="-gneE64 -gneE43 -gneE29 -gneE37 gneE41 gneE61"/>
    </vehicle>
    <vehicle id="87" depart="31.32">
        <route edges="gneE38 gneE45 gneE46 -gneE52 -gneE41"/>
    </vehicle>
    <vehicle id="88" depart="31.68">
        <route edges="-gneE32 -gneE31 -gneE39 -gneE38 -gneE35 gneE30 gneE31 gneE32"/>
    </vehicle>
    <vehicle id="89" depart="32.04">
        <route edges="-gneE58 -gneE39 -gneE38 gneE36 gneE37"/>
    </vehicle>
    <vehicle id="90" depart="32.40">
        <route edges="gneE30 -gneE39 -gneE38 gneE36 gneE40 gneE53"/>
    </vehicle>
    <vehicle id="91" depart="32.76">
        <route edges="gneE51 -gneE43 -gneE29 -gneE37 -gneE36 -gneE35"/>
    </vehicle>
    <vehicle id="92" depart="33.12">
        <route edges="-gneE57 gneE24"/>
    </vehicle>
    <vehicle id="93" depart="33.48">
        <route edges="gneE42 -gneE50 -gneE40 -gneE36 gneE44 -gneE46 -gneE45"/>
    </vehicle>
    <vehicle id="94" depart="33.84">
        <route edges="-gneE41 gneE37 -gneE28 gneE35 gneE36"/>
    </vehicle>
    <vehicle id="95" depart="34.20">
        <route edges="-gneE58 -gneE30 gneE28 -gneE37 gneE41 -gneE49 -gneE48"/>
    </vehicle>
    <vehicle id="96" depart="34.56">
        <route edges="-gneE45 -gneE38 gneE44 -gneE46 gneE69"/>
    </vehicle>
    <vehicle id="97" depart="34.92">
        <route edges="-gneE60 -gneE44 -gneE35 -gneE27 -gneE32 gneE67"/>
    </vehicle>
    <vehicle id="98" depart="35.28">
        <route edges="-gneE68 -gneE45 gneE39 gneE31 gneE32 gneE24 -gneE29"/>
    </vehicle>
    <vehicle id="99" depart="35.64">
        <route edges="gneE52 -gneE44 -gneE35 -gneE27 gneE24 gneE43 gneE65"/>
    </vehicle>
    <vehicle id="100" depart="36.00">
        <route edges="gneE50 -gneE42 -gneE28 gneE30 -gneE39 gneE45 gneE69"/>
    </vehicle>
    <vehicle id="101" depart="36.36">
        <route edges="gneE41 gneE52 -gneE44 -gneE35 gneE30 -gneE39"/>
    </vehicle>
    <vehicle id="102" depart="36.72">
        <route edges="-gneE64 -gneE43"/>
    </vehicle>
    <vehicle id="103" depart="37.08">
        <route edges="-gneE57 -gneE32 -gneE31 -gneE30"/>
    </vehicle>
    <vehicle id="104" depart="37.44">
        <route edges="-gneE55 -gneE29 -gneE37 -gneE36 gneE38 gneE72"/>
    </vehicle>
    <vehicle id="105" depart="37.80">
        <route edges="-gneE46 -gneE45 -gneE38 gneE36 gneE41 gneE61"/>
    </vehicle>
    <vehicle id="106" depart="38.16">
        <route edges="-gneE61 -gneE41 -gneE36 gneE38 gneE39 gneE31 gneE32"/>
    </vehicle>
    <vehicle id="107" depart="38.52">
        <route edges="gneE49 -gneE41 -gneE36 gneE38 gneE72"/>
    </vehicle>
    <vehicle id="108" depart="38.88">
        <route edges="-gneE68 -gneE45 -gneE38 -gneE35 -gneE27 gneE57"/>
    </vehicle>
    <vehicle id="109" depart="39.24">
        <route edges="-gneE39 -gneE38 gneE36 gneE37 gneE42 -gneE50"/>
    </vehicle>
    <vehicle id="110" depart="39.60">
        <route edges="gneE50 -gneE42 -gneE28 gneE30 -gneE39 gneE45"/>
    </vehicle>
    <vehicle id="111" depart="39.96">
        <route edges="-gneE67 -gneE31 gneE58"/>
    </vehicle>
    <vehicle id="112" depart="40.32">
        <route edges="-gneE30 gneE35 gneE38 gneE45"/>
    </vehicle>
    <vehicle id="113" depart="40.68">
        <route edges="-gneE65 -gneE43 -gneE24 -gneE32 gneE66"/>
    </vehicle>
    <vehicle id="114" depart="41.04">
        <route edges="-gneE39 -gneE38 gneE36 gneE40 gneE48 gneE71"/>
    </vehicle>
    <vehicle id="115" depart="41.40">
        <route edges="-gneE31 -gneE39 -gneE38 gneE44 -gneE52 -gneE41"/>
    </vehicle>
    <vehicle id="116" depart="41.76">
        <route edges="-gneE70 -gneE48 gneE53"/>
    </vehicle>
    <vehicle id="117" depart="42.12">
        <route edges="-gneE44 -gneE35 gneE28 -gneE37 -gneE36"/>
    </vehicle>
    <vehicle id="118" depart="42.48">
        <route edges="gneE44 -gneE46 -gneE45"/>
    </vehicle>
    <vehicle id="119" depart="42.84">
        <route edges="-gneE70 gneE49"/>
    </vehicle>
    <vehicle id="120" depart="43.20">
        <route edges="-gneE58 -gneE39 gneE45"/>
    </vehicle>
    <vehicle id="121" depart="43.56">
        <route edges="-gneE66 -gneE31 -gneE39 -gneE38 gneE36 gneE40 gneE48 gneE70"/>
    </vehicle>
    <vehicle id="122" depart="43.92">
        <route edges="-gneE42 -gneE28 -gneE27 gneE57"/>
    </vehicle>
    <vehicle id="123" depart="44.28">
        <route edges="-gneE45 -gneE38 -gneE35 gneE30"/>
    </vehicle>
    <vehicle id="124" depart="44.64">
        <route edges="gneE24 -gneE29 gneE42 -gneE50"/>
    </vehicle>
    <vehicle id="125" depart="45.00">
        <route edges="-gneE51 -gneE42 -gneE28 gneE30 gneE58"/>
    </vehicle>
    <vehicle id="126" depart="45.36">
        <route edges="-gneE31 -gneE39 -gneE38 gneE36"/>
    </vehicle>
    <vehicle id="127" depart="45.72">
        <route edges="gneE52 -gneE44 gneE38 gneE72"/>
    </vehicle>
    <vehicle id="128" depart="46.08">
        <route edges="-gneE31 -gneE30 gneE28 gneE42 gneE51 -gneE43"/>
    </vehicle>
    <vehicle id="129" depart="46.44">
        <route edges="-gneE46 -gneE45 -gneE38 gneE36 gneE40 gneE48 gneE70"/>
    </vehicle>
    <vehicle id="130" depart="46.80">
        <route edges="gneE43 -gneE51 -gneE42 gneE29 -gneE24 -gneE32 gneE67"/>
    </vehicle>
    <vehicle id="131" depart="47.16">
        <route edges="-gneE55 -gneE24 -gneE32 -gneE31 -gneE39"/>
    </vehicle>
    <vehicle id="132" depart="47.52">
        <route edges="gneE40 gneE50 -gneE42 gneE29 gneE55"/>
    </vehicle>
    <vehicle id="133" depart="47.88">
        <route edges="-gneE70 -gneE48 -gneE40 -gneE36 gneE38 gneE72"/>
    </vehicle>
    <vehicle id="134" depart="48.24">
        <route edges="-gneE72 -gneE38 gneE36 gneE37 gneE29 -gneE24"/>
    </vehicle>
    <vehicle id="135" depart="48.60">
        <route edges="gneE38 gneE39 -gneE30 gneE28 gneE42 -gneE50"/>
    </vehicle>
    <vehicle id="136" depart="48.96">
        <route edges="-gneE72 -gneE38 gneE36 gneE40 gneE48 gneE70"/>
    </vehicle>
    <vehicle id="137" depart="49.32">
        <route edges="-gneE37 -gneE36"/>
    </vehicle>
    <vehicle id="138" depart="49.68">
        <route edges="-gneE35 -gneE27 gneE24 gneE43"/>
    </vehicle>
    <vehicle id="139" depart="50.04">
        <route edges="-gneE48 gneE50 -gneE42 -gneE37 gneE40 gneE48"/>
    </vehicle>
    <vehicle id="140" depart="50.40">
        <route edges="gneE29 gneE43 -gneE51 -gneE42"/>
    </vehicle>
    <vehicle id="141" depart="50.76">
        <route edges="-gneE71 gneE49 gneE52 -gneE46"/>
    </vehicle>
    <vehicle id="142" depart="51.12">
        <route edges="-gneE65 -gneE43 -gneE24 -gneE32 -gneE31 -gneE39 gneE45 gneE69"/>
    </vehicle>
    <vehicle id="143" depart="51.48">
        <route edges="gneE40 gneE50 -gneE42 gneE29 -gneE24 -gneE32"/>
    </vehicle>
    <vehicle id="144" depart="51.84">
        <route edges="-gneE58 -gneE30 gneE28 -gneE37 gneE41 -gneE49 -gneE48"/>
    </vehicle>
    <vehicle id="145" depart="52.20">
        <route edges="-gneE24 gneE27 gneE35 gneE44 gneE60"/>
    </vehicle>
    <vehicle id="146" depart="52.56">
        <route edges="-gneE71 gneE49 gneE52 -gneE46"/>
    </vehicle>
    <vehicle id="147" depart="52.92">
        <route edges="gneE31 gneE32 gneE24 gneE43"/>
    </vehicle>
    <vehicle id="148" depart="53.28">
        <route edges="-gneE60 -gneE44 gneE36 gneE37 gneE29 -gneE24"/>
    </vehicle>
    <vehicle id="149" depart="53.64">
        <route edges="-gneE31 -gneE39 gneE45 gneE68"/>
    </vehicle>
    <vehicle id="150" depart="54.00">
        <route edges="gneE45 gneE46 -gneE44 -gneE35 -gneE27 gneE24 gneE43"/>
    </vehicle>
    <vehicle id="151" depart="54.36">
        <route edges="gneE40 gneE50 -gneE42 -gneE28 gneE30 -gneE39 gneE45"/>
    </vehicle>
    <vehicle id="152" depart="54.72">
        <route edges="-gneE38 -gneE35 gneE28 -gneE37"/>
    </vehicle>
    <vehicle id="153" depart="55.08">
        <route edges="-gneE51 -gneE42 -gneE28 gneE30 -gneE39 gneE45 gneE68"/>
    </vehicle>
    <vehicle id="154" depart="55.44">
        <route edges="gneE37 gneE29 -gneE24 -gneE32 gneE67"/>
    </vehicle>
    <vehicle id="155" depart="55.80">
        <route edges="gneE44 -gneE52 -gneE41 gneE37 gneE42 gneE51 -gneE43"/>
    </vehicle>
    <vehicle id="156" depart="56.16">
        <route edges="-gneE45 -gneE38 -gneE35"/>
    </vehicle>
    <vehicle id="157" depart="56.52">
        <route edges="gneE36 gneE37 -gneE28 gneE30 -gneE39 gneE45 gneE68"/>
    </vehicle>
    <vehicle id="158" depart="56.88">
        <route edges="-gneE58 -gneE39 -gneE38 gneE36 gneE40 gneE48 gneE49"/>
    </vehicle>
    <vehicle id="159" depart="57.24">
        <route edges="-gneE39 -gneE38 gneE36 gneE40 gneE48 gneE70"/>
    </vehicle>
    <vehicle id="160" depart="57.60">
        <route edges="gneE42 -gneE50 -gneE40 -gneE36 gneE38 gneE72"/>
    </vehicle>
    <vehicle id="161" depart="57.96">
        <route edges="gneE38 gneE39 gneE31 gneE67"/>
    </vehicle>
    <vehicle id="162" depart="58.32">
        <route edges="-gneE27 gneE57"/>
    </vehicle>
    <vehicle id="163" depart="58.68">
        <route edges="-gneE52 -gneE49 gneE70"/>
    </vehicle>
    <vehicle id="164" depart="59.04">
        <route edges="gneE37 gneE29 -gneE24 -gneE32 gneE67"/>
    </vehicle>
    <vehicle id="165" depart="59.40">
        <route edges="gneE38 gneE45 gneE46 -gneE52 -gneE49 -gneE48"/>
    </vehicle>
    <vehicle id="166" depart="59.76">
        <route edges="gneE36 gneE37 -gneE28 gneE30 -gneE39 -gneE38 -gneE35"/>
    </vehicle>
    <vehicle id="167" depart="60.12">
        <route edges="gneE42 gneE51 -gneE43 -gneE24 -gneE32 gneE66"/>
    </vehicle>
    <vehicle id="168" depart="60.48">
        <route edges="-gneE43 -gneE29 gneE42 gneE51 gneE64"/>
    </vehicle>
    <vehicle id="169" depart="60.84">
        <route edges="-gneE61 -gneE41 gneE37 gneE42 -gneE50"/>
    </vehicle>
    <vehicle id="170" depart="61.20">
        <route edges="gneE37 -gneE28 gneE30 -gneE39 gneE45 gneE46 -gneE44"/>
    </vehicle>
    <vehicle id="171" depart="61.56">
        <route edges="-gneE27 -gneE32 -gneE31 -gneE39 -gneE38 gneE44 -gneE52 -gneE41"/>
    </vehicle>
    <vehicle id="172" depart="61.92">
        <route edges="-gneE52 -gneE41 gneE37 gneE29 -gneE24 -gneE32 gneE67"/>
    </vehicle>
    <vehicle id="173" depart="62.28">
        <route edges="gneE50 -gneE42 -gneE37 gneE41 -gneE49 -gneE48"/>
    </vehicle>
    <vehicle id="174" depart="62.64">
        <route edges="-gneE72 -gneE38 -gneE35 gneE30"/>
    </vehicle>
    <vehicle id="175" depart="63.00">
        <route edges="gneE51 -gneE43 -gneE29 gneE42"/>
    </vehicle>
    <vehicle id="176" depart="63.36">
        <route edges="gneE48 gneE49 -gneE41 -gneE36"/>
    </vehicle>
    <vehicle id="177" depart="63.72">
        <route edges="gneE50 -gneE42 -gneE37 gneE41 -gneE49 -gneE48 -gneE40"/>
    </vehicle>
    <vehicle id="178" depart="64.08">
        <route edges="gneE50 -gneE42 -gneE37 gneE41 -gneE49 -gneE48"/>
    </vehicle>
    <vehicle id="179" depart="64.44">
        <route edges="-gneE35 gneE28 gneE29 -gneE24 gneE27 gneE35"/>
    </vehicle>
    <vehicle id="180" depart="64.80">
        <route edges="gneE30 gneE31 gneE32 gneE24 gneE43 -gneE51"/>
    </vehicle>
    <vehicle id="181" depart="65.16">
        <route edges="-gneE70 gneE49 -gneE41 gneE40"/>
    </vehicle>
    <vehicle id="182" depart="65.52">
        <route edges="-gneE57 gneE27 gneE35 gneE38 gneE45"/>
    </vehicle>
    <vehicle id="183" depart="65.88">
        <route edges="-gneE46 -gneE45 -gneE38 gneE36 gneE37 gneE29 gneE55"/>
    </vehicle>
    <vehicle id="184" depart="66.24">
        <route edges="-gneE24 -gneE32 -gneE31 -gneE39 gneE45 gneE69"/>
    </vehicle>
    <vehicle id="185" depart="66.60">
        <route edges="-gneE67 gneE32 gneE57"/>
    </vehicle>
    <vehicle id="186" depart="66.96">
        <route edges="gneE31 gneE32 gneE24 -gneE29 -gneE37 gneE40 gneE53"/>
    </vehicle>
    <vehicle id="187" depart="67.32">
        <route edges="-gneE55 -gneE24 -gneE32 -gneE31"/>
    </vehicle>
    <vehicle id="188" depart="67.68">
        <route edges="-gneE72 -gneE38 gneE44 -gneE52"/>
    </vehicle>
    <vehicle id="189" depart="68.04">
        <route edges="-gneE51 -gneE42 -gneE28 gneE30 gneE31 gneE66"/>
    </vehicle>
    <vehicle id="190" depart="68.40">
        <route edges="gneE29 gneE43 -gneE51 -gneE50"/>
    </vehicle>
    <vehicle id="191" depart="68.76">
        <route edges="-gneE51 -gneE42 -gneE28 gneE30 gneE31"/>
    </vehicle>
    <vehicle id="192" depart="69.12">
        <route edges="-gneE57 gneE27 gneE28 gneE42 -gneE50"/>
    </vehicle>
    <vehicle id="193" depart="69.48">
        <route edges="-gneE37 -gneE36 gneE38 gneE39 gneE31 gneE32"/>
    </vehicle>
    <vehicle id="194" depart="69.84">
        <route edges="gneE48 gneE49 -gneE41 gneE40 gneE53"/>
    </vehicle>
    <vehicle id="195" depart="70.20">
        <route edges="gneE45 gneE46 -gneE44 gneE36 gneE40 gneE48 gneE49"/>
    </vehicle>
    <vehicle id="196" depart="70.56">
        <route edges="-gneE50 -gneE40 gneE37 gneE29 gneE43"/>
    </vehicle>
    <vehicle id="197" depart="70.92">
        <route edges="-gneE24 gneE27 gneE35 gneE36 gneE41 -gneE49"/>
    </vehicle>
    <vehicle id="198" depart="71.28">
        <route edges="-gneE60 -gneE44 gneE38 gneE45"/>
    </vehicle>
    <vehicle id="199" depart="71.64">
        <route edges="-gneE72 -gneE38 gneE36 gneE37"/>
    </vehicle>
    <vehicle id="200" depart="72.00">
        <route edges="-gneE60 -gneE44 -gneE35 gneE28 gneE42 gneE51 -gneE43"/>
    </vehicle>
    <vehicle id="201" depart="72.36">
        <route edges="-gneE64 -gneE43 -gneE24 -gneE32 -gneE31 -gneE39 gneE45 gneE68"/>
    </vehicle>
    <vehicle id="202" depart="72.72">
        <route edges="gneE37 gneE42 -gneE50 -gneE40"/>
    </vehicle>
    <vehicle id="203" depart="73.08">
        <route edges="-gneE32 -gneE31 -gneE39 -gneE38 gneE36 gneE40"/>
    </vehicle>
    <vehicle id="204" depart="73.44">
        <route edges="-gneE71 -gneE48 -gneE40 -gneE36 gneE44 -gneE52"/>
    </vehicle>
    <vehicle id="205" depart="73.80">
        <route edges="gneE39 gneE58"/>
    </vehicle>
    <vehicle id="206" depart="74.16">
        <route edges="gneE24 -gneE29 -gneE37 gneE41 gneE52 -gneE44"/>
    </vehicle>
    <vehicle id="207" depart="74.52">
        <route edges="-gneE42 -gneE28 -gneE27"/>
    </vehicle>
    <vehicle id="208" depart="74.88">
        <route edges="-gneE45 gneE39 -gneE30 gneE35 gneE38"/>
    </vehicle>
    <vehicle id="209" depart="75.24">
        <route edges="gneE41 gneE52 -gneE44 -gneE35 -gneE27 -gneE32 -gneE31"/>
    </vehicle>
    <vehicle id="210" depart="75.60">
        <route edges="-gneE58 -gneE39 -gneE38 gneE36 gneE40 gneE50"/>
    </vehicle>
    <vehicle id="211" depart="75.96">
        <route edges="-gneE41 gneE37 gneE29 gneE55"/>
    </vehicle>
    <vehicle id="212" depart="76.32">
        <route edges="-gneE65 -gneE43 -gneE24 gneE27 gneE35 gneE44 -gneE46 -gneE45"/>
    </vehicle>
    <vehicle id="213" depart="76.68">
        <route edges="-gneE72 -gneE38 gneE36 gneE37 gneE29 -gneE24"/>
    </vehicle>
    <vehicle id="214" depart="77.04">
        <route edges="gneE32 gneE27 gneE35 gneE44 gneE60"/>
    </vehicle>
    <vehicle id="215" depart="77.40">
        <route edges="-gneE35 gneE30 gneE31 gneE32"/>
    </vehicle>
    <vehicle id="216" depart="77.76">
        <route edges="-gneE40 gneE41 -gneE49 gneE71"/>
    </vehicle>
    <vehicle id="217" depart="78.12">
        <route edges="-gneE66 gneE32 gneE24 -gneE29"/>
    </vehicle>
    <vehicle id="218" depart="78.48">
        <route edges="-gneE45 gneE39 gneE31 gneE66"/>
    </vehicle>
    <vehicle id="219" depart="78.84">
        <route edges="-gneE61 -gneE41 -gneE36 gneE44 -gneE52 gneE61"/>
    </vehicle>
    <vehicle id="220" depart="79.20">
        <route edges="gneE24 -gneE29 -gneE37 -gneE36 gneE38 gneE72"/>
    </vehicle>
    <vehicle id="221" depart="79.56">
        <route edges="-gneE70 gneE71"/>
    </vehicle>
    <vehicle id="222" depart="79.92">
        <route edges="gneE44 -gneE52 -gneE41 gneE40 gneE48"/>
    </vehicle>
    <vehicle id="223" depart="80.28">
        <route edges="gneE29 -gneE24 gneE27 gneE35 gneE36 gneE40"/>
    </vehicle>
    <vehicle id="224" depart="80.64">
        <route edges="gneE39 gneE31 gneE32 gneE24 gneE43"/>
    </vehicle>
    <vehicle id="225" depart="81.00">
        <route edges="gneE44 -gneE46 -gneE45 gneE39 gneE58"/>
    </vehicle>
    <vehicle id="226" depart="81.36">
        <route edges="-gneE64 -gneE43 -gneE24 gneE27 gneE35 gneE44 -gneE46"/>
    </vehicle>
    <vehicle id="227" depart="81.72">
        <route edges="-gneE45 -gneE38 gneE36 gneE40 gneE50"/>
    </vehicle>
    <vehicle id="228" depart="82.08">
        <route edges="gneE35 gneE36 gneE41"/>
    </vehicle>
    <vehicle id="229" depart="82.44">
        <route edges="-gneE71 -gneE48"/>
    </vehicle>
    <vehicle id="230" depart="82.80">
        <route edges="-gneE31 -gneE39 -gneE38 gneE36 gneE41 -gneE49"/>
    </vehicle>
    <vehicle id="231" depart="83.16">
        <route edges="-gneE48 -gneE40 gneE37 gneE29 gneE43 -gneE51"/>
    </vehicle>
    <vehicle id="232" depart="83.52">
        <route edges="-gneE67 gneE32 gneE24 -gneE29 -gneE37"/>
    </vehicle>
    <vehicle id="233" depart="83.88">
        <route edges="-gneE44 -gneE35 gneE28 gneE42 gneE54"/>
    </vehicle>
    <vehicle id="234" depart="84.24">
        <route edges="gneE28 gneE29 -gneE24 -gneE32 -gneE31 -gneE30"/>
    </vehicle>
    <vehicle id="235" depart="84.60">
        <route edges="-gneE58 -gneE30 gneE28 gneE42"/>
    </vehicle>
    <vehicle id="236" depart="84.96">
        <route edges="-gneE58 -gneE39 -gneE38 gneE36 gneE40 gneE50 -gneE42"/>
    </vehicle>
    <vehicle id="237" depart="85.32">
        <route edges="-gneE58 -gneE39 gneE45 gneE69"/>
    </vehicle>
    <vehicle id="238" depart="85.68">
        <route edges="-gneE69 -gneE45 -gneE38 gneE36 gneE37 gneE29 gneE55"/>
    </vehicle>
    <vehicle id="239" depart="86.04">
        <route edges="gneE41 gneE52 gneE60"/>
    </vehicle>
    <vehicle id="240" depart="86.40">
        <route edges="-gneE55 -gneE24"/>
    </vehicle>
    <vehicle id="241" depart="86.76">
        <route edges="-gneE54 -gneE42 -gneE28 gneE30 gneE58"/>
    </vehicle>
    <vehicle id="242" depart="87.12">
        <route edges="gneE41 -gneE49 gneE71"/>
    </vehicle>
    <vehicle id="243" depart="87.48">
        <route edges="-gneE58 -gneE39 -gneE38 -gneE35 gneE30 gneE58"/>
    </vehicle>
    <vehicle id="244" depart="87.84">
        <route edges="-gneE67 -gneE31 -gneE39 -gneE38 gneE36 gneE40 gneE48"/>
    </vehicle>
    <vehicle id="245" depart="88.20">
        <route edges="-gneE43"/>