<?xml version="1.0" encoding="UTF-8"?>
<!-- generated on 2022-07-21 16:04:56.935820 by $Id$ v1_10_0+0000-83496a5972
  options: -n demo.net.xml -l -e 10000 -p 0.36 -o test.trips.xml
-->
<routes xmlns:xsi="http://www.w3.org/2001/XMLSchema-instance" xsi:noNamespaceSchemaLocation="http://sumo.dlr.de/xsd/routes_file.xsd">
    <trip id="0" depart="0.00" from="-gneE72" to="-gneE27"/>
    <trip id="1" depart="0.36" from="-gneE48" to="-gneE43"/>
    <trip id="2" depart="0.72" from="gneE31" to="gneE53"/>
    <trip id="3" depart="1.08" from="gneE44" to="-gneE32"/>
    <trip id="4" depart="1.44" from="-gneE58" to="-gneE28"/>
    <trip id="5" depart="1.80" from="-gneE43" to="gneE40"/>
    <trip id="6" depart="2.16" from="-gneE27" to="-gneE42"/>
    <trip id="7" depart="2.52" from="-gneE72" to="gneE43"/>
    <trip id="8" depart="2.88" from="-gneE43" to="gneE46"/>
    <trip id="9" depart="3.24" from="gneE38" to="-gneE24"/>
    <trip id="10" depart="3.60" from="gneE38" to="gneE55"/>
    <trip id="11" depart="3.96" from="-gneE53" to="-gneE39"/>
    <trip id="12" depart="4.32" from="gneE49" to="gneE24"/>
    <trip id="13" depart="4.68" from="-gneE32" to="-gneE32"/>
    <trip id="14" depart="5.04" from="gneE41" to="gneE48"/>
    <trip id="15" depart="5.40" from="gneE38" to="gneE57"/>
    <trip id="16" depart="5.76" from="-gneE67" to="gneE72"/>
    <trip id="17" depart="6.12" from="-gneE55" to="gneE43"/>
    <trip id="18" depart="6.48" from="gneE39" to="gneE49"/>
    <trip id="19" depart="6.84" from="gneE42" to="gneE45"/>
    <trip id="20" depart="7.20" from="gneE28" to="-gneE29"/>
    <trip id="21" depart="7.56" from="-gneE44" to="-gneE49"/>
    <trip id="22" depart="7.92" from="-gneE31" to="-gneE44"/>
    <trip id="23" depart="8.28" from="-gneE35" to="-gneE48"/>
    <trip id="24" depart="8.64" from="-gneE71" to="gneE28"/>
    <trip id="25" depart="9.00" from="-gneE55" to="-gneE42"/>
    <trip id="26" depart="9.36" from="-gneE48" to="gneE70"/>
    <trip id="27" depart="9.72" from="-gneE72" to="gneE48"/>
    <trip id="28" depart="10.08" from="-gneE40" to="gneE57"/>
    <trip id="29" depart="10.44" from="-gneE39" to="gneE29"/>
    <trip id="30" depart="10.80" from="gneE52" to="gneE50"/>
    <trip id="31" depart="11.16" from="-gneE68" to="gneE54"/>
    <trip id="32" depart="11.52" from="gneE40" to="gneE60"/>
    <trip id="33" depart="11.88" from="-gneE44" to="-gneE28"/>
    <trip id="34" depart="12.24" from="-gneE51" to="-gneE48"/>
    <trip id="35" depart="12.60" from="-gneE43" to="gneE70"/>
    <trip id="36" depart="12.96" from="gneE43" to="-gneE51"/>
    <trip id="37" depart="13.32" from="-gneE72" to="gneE30"/>
    <trip id="38" depart="13.68" from="gneE45" to="gneE36"/>
    <trip id="39" depart="14.04" from="-gneE46" to="-gneE45"/>
    <trip id="40" depart="14.40" from="-gneE68" to="-gneE46"/>
    <trip id="41" depart="14.76" from="-gneE69" to="gneE68"/>
    <trip id="42" depart="15.12" from="-gneE57" to="-gneE43"/>
    <trip id="43" depart="15.48" from="gneE52" to="gneE40"/>
    <trip id="44" depart="15.84" from="-gneE32" to="-gneE29"/>
    <trip id="45" depart="16.20" from="-gneE35" to="gneE49"/>
    <trip id="46" depart="16.56" from="gneE37" to="gneE32"/>
    <trip id="47" depart="16.92" from="-gneE30" to="gneE29"/>
    <trip id="48" depart="17.28" from="gneE52" to="gneE41"/>
    <trip id="49" depart="17.64" from="gneE50" to="gneE67"/>
    <trip id="50" depart="18.00" from="-gneE24" to="gneE57"/>
    <trip id="51" depart="18.36" from="gneE27" to="gneE42"/>
    <trip id="52" depart="18.72" from="-gneE48" to="gneE50"/>
    <trip id="53" depart="19.08" from="-gneE35" to="gneE35"/>
    <trip id="54" depart="19.44" from="-gneE61" to="gneE71"/>
    <trip id="55" depart="19.80" from="gneE43" to="-gneE46"/>
    <trip id="56" depart="20.16" from="-gneE65" to="-gneE40"/>
    <trip id="57" depart="20.52" from="gneE45" to="gneE67"/>
    <trip id="58" depart="20.88" from="-gneE50" to="gneE50"/>
    <trip id="59" depart="21.24" from="-gneE70" to="-gneE38"/>
    <trip id="60" depart="21.60" from="gneE35" to="gneE42"/>
    <trip id="61" depart="21.96" from="gneE36" to="gneE41"/>
    <trip id="62" depart="22.32" from="-gneE24" to="-gneE52"/>
    <trip id="63" depart="22.68" from="-gneE27" to="gneE70"/>
    <trip id="64" depart="23.04" from="gneE43" to="gneE65"/>
    <trip id="65" depart="23.40" from="-gneE51" to="-gneE30"/>
    <trip id="66" depart="23.76" from="gneE43" to="gneE70"/>
    <trip id="67" depart="24.12" from="-gneE32" to="gneE38"/>
    <trip id="68" depart="24.48" from="-gneE30" to="gneE60"/>
    <trip id="69" depart="24.84" from="gneE35" to="-gneE37"/>
    <trip id="70" depart="25.20" from="-gneE64" to="gneE43"/>
    <trip id="71" depart="25.56" from="-gneE46" to="gneE67"/>
    <trip id="72" depart="25.92" from="-gneE58" to="-gneE43"/>
    <trip id="73" depart="26.28" from="-gneE67" to="gneE57"/>
    <trip id="74" depart="26.64" from="-gneE42" to="-gneE51"/>
    <trip id="75" depart="27.00" from="gneE52" to="gneE51"/>
    <trip id="76" depart="27.36" from="-gneE60" to="gneE41"/>
    <trip id="77" depart="27.72" from="-gneE36" to="-gneE44"/>
    <trip id="78" depart="28.08" from="-gneE53" to="gneE46"/>
    <trip id="79" depart="28.44" from="-gneE44" to="-gneE43"/>
    <trip id="80" depart="28.80" from="-gneE31" to="gneE50"/>
    <trip id="81" depart="29.16" from="-gneE44" to="gneE69"/>
    <trip id="82" depart="29.52" from="gneE41" to="-gneE31"/>
    <trip id="83" depart="29.88" from="-gneE45" to="gneE52"/>
    <trip id="84" depart="30.24" from="-gneE43" to="-gneE37"/>
    <trip id="85" depart="30.60" from="gneE48" to="gneE44"/>
    <trip id="86" depart="30.96" from="-gneE64" to="gneE61"/>
    <trip id="87" depart="31.32" from="gneE38" to="-gneE41"/>
    <trip id="88" depart="31.68" from="-gneE32" to="gneE32"/>
    <trip id="89" depart="32.04" from="-gneE58" to="gneE37"/>
    <trip id="90" depart="32.40" from="gneE30" to="gneE53"/>
    <trip id="91" depart="32.76" from="gneE51" to="-gneE35"/>
    <trip id="92" depart="33.12" from="-gneE57" to="gneE24"/>
    <trip id="93" depart="33.48" from="gneE42" to="-gneE45"/>
    <trip id="94" depart="33.84" from="-gneE41" to="gneE36"/>
    <trip id="95" depart="34.20" from="-gneE58" to="-gneE48"/>
    <trip id="96" depart="34.56" from="-gneE45" to="gneE69"/>
    <trip id="97" depart="34.92" from="-gneE60" to="gneE67"/>
    <trip id="98" depart="35.28" from="-gneE68" to="-gneE29"/>
    <trip id="99" depart="35.64" from="gneE52" to="gneE65"/>
    <trip id="100" depart="36.00" from="gneE50" to="gneE69"/>
    <trip id="101" depart="36.36" from="gneE41" to="-gneE39"/>
    <trip id="102" depart="36.72" from="-gneE64" to="-gneE43"/>
    <trip id="103" depart="37.08" from="-gneE57" to="-gneE30"/>
    <trip id="104" depart="37.44" from="-gneE55" to="gneE72"/>
    <trip id="105" depart="37.80" from="-gneE46" to="gneE61"/>
    <trip id="106" depart="38.16" from="-gneE61" to="gneE32"/>
    <trip id="107" depart="38.52" from="gneE49" to="gneE72"/>
    <trip id="108" depart="38.88" from="-gneE68" to="gneE57"/>
    <trip id="109" depart="39.24" from="-gneE39" to="-gneE50"/>
    <trip id="110" depart="39.60" from="gneE50" to="gneE45"/>
    <trip id="111" depart="39.96" from="-gneE67" to="gneE58"/>
    <trip id="112" depart="40.32" from="-gneE30" to="gneE45"/>
    <trip id="113" depart="40.68" from="-gneE65" to="gneE66"/>
    <trip id="114" depart="41.04" from="-gneE39" to="gneE71"/>
    <trip id="115" depart="41.40" from="-gneE31" to="-gneE41"/>
    <trip id="116" depart="41.76" from="-gneE70" to="gneE53"/>
    <trip id="117" depart="42.12" from="-gneE44" to="-gneE36"/>
    <trip id="118" depart="42.48" from="gneE44" to="-gneE45"/>
    <trip id="119" depart="42.84" from="-gneE70" to="gneE49"/>
    <trip id="120" depart="43.20" from="-gneE58" to="gneE45"/>
    <trip id="121" depart="43.56" from="-gneE66" to="gneE70"/>
    <trip id="122" depart="43.92" from="-gneE42" to="gneE57"/>
    <trip id="123" depart="44.28" from="-gneE45" to="gneE30"/>
    <trip id="124" depart="44.64" from="gneE24" to="-gneE50"/>
    <trip id="125" depart="45.00" from="-gneE51" to="gneE58"/>
    <trip id="126" depart="45.36" from="-gneE31" to="gneE36"/>
    <trip id="127" depart="45.72" from="gneE52" to="gneE72"/>
    <trip id="128" depart="46.08" from="-gneE31" to="-gneE43"/>
    <trip id="129" depart="46.44" from="-gneE46" to="gneE70"/>
    <trip id="130" depart="46.80" from="gneE43" to="gneE67"/>
    <trip id="131" depart="47.16" from="-gneE55" to="-gneE39"/>
    <trip id="132" depart="47.52" from="gneE40" to="gneE55"/>
    <trip id="133" depart="47.88" from="-gneE70" to="gneE72"/>
    <trip id="134" depart="48.24" from="-gneE72" to="-gneE24"/>
    <trip id="135" depart="48.60" from="gneE38" to="-gneE50"/>
    <trip id="136" depart="48.96" from="-gneE72" to="gneE70"/>
    <trip id="137" depart="49.32" from="-gneE37" to="-gneE36"/>
    <trip id="138" depart="49.68" from="-gneE35" to="gneE43"/>
    <trip id="139" depart="50.04" from="-gneE48" to="gneE48"/>
    <trip id="140" depart="50.40" from="gneE29" to="-gneE42"/>
    <trip id="141" depart="50.76" from="-gneE71" to="-gneE46"/>
    <trip id="142" depart="51.12" from="-gneE65" to="gneE69"/>
    <trip id="143" depart="51.48" from="gneE40" to="-gneE32"/>
    <trip id="144" depart="51.84" from="-gneE58" to="-gneE48"/>
    <trip id="145" depart="52.20" from="-gneE24" to="gneE60"/>
    <trip id="146" depart="52.56" from="-gneE71" to="-gneE46"/>
    <trip id="147" depart="52.92" from="gneE31" to="gneE43"/>
    <trip id="148" depart="53.28" from="-gneE60" to="-gneE24"/>
    <trip id="149" depart="53.64" from="-gneE31" to="gneE68"/>
    <trip id="150" depart="54.00" from="gneE45" to="gneE43"/>
    <trip id="151" depart="54.36" from="gneE40" to="gneE45"/>
    <trip id="152" depart="54.72" from="-gneE38" to="-gneE37"/>
    <trip id="153" depart="55.08" from="-gneE51" to="gneE68"/>
    <trip id="154" depart="55.44" from="gneE37" to="gneE67"/>
    <trip id="155" depart="55.80" from="gneE44" to="-gneE43"/>
    <trip id="156" depart="56.16" from="-gneE45" to="-gneE35"/>
    <trip id="157" depart="56.52" from="gneE36" to="gneE68"/>
    <trip id="158" depart="56.88" from="-gneE58" to="gneE49"/>
    <trip id="159" depart="57.24" from="-gneE39" to="gneE70"/>
    <trip id="160" depart="57.60" from="gneE42" to="gneE72"/>
    <trip id="161" depart="57.96" from="gneE38" to="gneE67"/>
    <trip id="162" depart="58.32" from="-gneE27" to="gneE57"/>
    <trip id="163" depart="58.68" from="-gneE52" to="gneE70"/>
    <trip id="164" depart="59.04" from="gneE37" to="gneE67"/>
    <trip id="165" depart="59.40" from="gneE38" to="-gneE48"/>
    <trip id="166" depart="59.76" from="gneE36" to="-gneE35"/>
    <trip id="167" depart="60.12" from="gneE42" to="gneE66"/>
    <trip id="168" depart="60.48" from="-gneE43" to="gneE64"/>
    <trip id="169" depart="60.84" from="-gneE61" to="-gneE50"/>
    <trip id="170" depart="61.20" from="gneE37" to="-gneE44"/>
    <trip id="171" depart="61.56" from="-gneE27" to="-gneE41"/>
    <trip id="172" depart="61.92" from="-gneE52" to="gneE67"/>
    <trip id="173" depart="62.28" from="gneE50" to="-gneE48"/>
    <trip id="174" depart="62.64" from="-gneE72" to="gneE30"/>
    <trip id="175" depart="63.00" from="gneE51" to="gneE42"/>
    <trip id="176" depart="63.36" from="gneE48" to="-gneE36"/>
    <trip id="177" depart="63.72" from="gneE50" to="-gneE40"/>
    <trip id="178" depart="64.08" from="gneE50" to="-gneE48"/>
    <trip id="179" depart="64.44" from="-gneE35" to="gneE35"/>
    <trip id="180" depart="64.80" from="gneE30" to="-gneE51"/>
    <trip id="181" depart="65.16" from="-gneE70" to="gneE40"/>
    <trip id="182" depart="65.52" from="-gneE57" to="gneE45"/>
    <trip id="183" depart="65.88" from="-gneE46" to="gneE55"/>
    <trip id="184" depart="66.24" from="-gneE24" to="gneE69"/>
    <trip id="185" depart="66.60" from="-gneE67" to="gneE57"/>
    <trip id="186" depart="66.96" from="gneE31" to="gneE53"/>
    <trip id="187" depart="67.32" from="-gneE55" to="-gneE31"/>
    <trip id="188" depart="67.68" from="-gneE72" to="-gneE52"/>
    <trip id="189" depart="68.04" from="-gneE51" to="gneE66"/>
    <trip id="190" depart="68.40" from="gneE29" to="-gneE50"/>
    <trip id="191" depart="68.76" from="-gneE51" to="gneE31"/>
    <trip id="192" depart="69.12" from="-gneE57" to="-gneE50"/>
    <trip id="193" depart="69.48" from="-gneE37" to="gneE32"/>
    <trip id="194" depart="69.84" from="gneE48" to="gneE53"/>
    <trip id="195" depart="70.20" from="gneE45" to="gneE49"/>
    <trip id="196" depart="70.56" from="-gneE50" to="gneE43"/>
    <trip id="197" depart="70.92" from="-gneE24" to="-gneE49"/>
    <trip id="198" depart="71.28" from="-gneE60" to="gneE45"/>
    <trip id="199" depart="71.64" from="-gneE72" to="gneE37"/>
    <trip id="200" depart="72.00" from="-gneE60" to="-gneE43"/>
    <trip id="201" depart="72.36" from="-gneE64" to="gneE68"/>
    <trip id="202" depart="72.72" from="gneE37" to="-gneE40"/>
    <trip id="203" depart="73.08" from="-gneE32" to="gneE40"/>
    <trip id="204" depart="73.44" from="-gneE71" to="-gneE52"/>
    <trip id="205" depart="73.80" from="gneE39" to="gneE58"/>
    <trip id="206" depart="74.16" from="gneE24" to="-gneE44"/>
    <trip id="207" depart="74.52" from="-gneE42" to="-gneE27"/>
    <trip id="208" depart="74.88" from="-gneE45" to="gneE38"/>
    <trip id="209" depart="75.24" from="gneE41" to="-gneE31"/>
    <trip id="210" depart="75.60" from="-gneE58" to="gneE50"/>
    <trip id="211" depart="75.96" from="-gneE41" to="gneE55"/>
    <trip id="212" depart="76.32" from="-gneE65" to="-gneE45"/>
    <trip id="213" depart="76.68" from="-gneE72" to="-gneE24"/>
    <trip id="214" depart="77.04" from="gneE32" to="gneE60"/>
    <trip id="215" depart="77.40" from="-gneE35" to="gneE32"/>
    <trip id="216" depart="77.76" from="-gneE40" to="gneE71"/>
    <trip id="217" depart="78.12" from="-gneE66" to="-gneE29"/>
    <trip id="218" depart="78.48" from="-gneE45" to="gneE66"/>
    <trip id="219" depart="78.84" from="-gneE61" to="gneE61"/>
    <trip id="220" depart="79.20" from="gneE24" to="gneE72"/>
    <trip id="221" depart="79.56" from="-gneE70" to="gneE71"/>
    <trip id="222" depart="79.92" from="gneE44" to="gneE48"/>
    <trip id="223" depart="80.28" from="gneE29" to="gneE40"/>
    <trip id="224" depart="80.64" from="gneE39" to="gneE43"/>
    <trip id="225" depart="81.00" from="gneE44" to="gneE58"/>
    <trip id="226" depart="81.36" from="-gneE64" to="-gneE46"/>
    <trip id="227" depart="81.72" from="-gneE45" to="gneE50"/>
    <trip id="228" depart="82.08" from="gneE35" to="gneE41"/>
    <trip id="229" depart="82.44" from="-gneE71" to="-gneE48"/>
    <trip id="230" depart="82.80" from="-gneE31" to="-gneE49"/>
    <trip id="231" depart="83.16" from="-gneE48" to="-gneE51"/>
    <trip id="232" depart="83.52" from="-gneE67" to="-gneE37"/>
    <trip id="233" depart="83.88" from="-gneE44" to="gneE54"/>
    <trip id="234" depart="84.24" from="gneE28" to="-gneE30"/>
    <trip id="235" depart="84.60" from="-gneE58" to="gneE42"/>
    <trip id="236" depart="84.96" from="-gneE58" to="-gneE42"/>
    <trip id="237" depart="85.32" from="-gneE58" to="gneE69"/>
    <trip id="238" depart="85.68" from="-gneE69" to="gneE55"/>
    <trip id="239" depart="86.04" from="gneE41" to="gneE60"/>
    <trip id="240" depart="86.40" from="-gneE55" to="-gneE24"/>
    <trip id="241" depart="86.76" from="-gneE54" to="gneE58"/>
    <trip id="242" depart="87.12" from="gneE41" to="gneE71"/>
    <trip id="243" depart="87.48" from="-gneE58" to="gneE58"/>
    <trip id="244" depart="87.84" from="-gneE67" to="gneE48"/>
    <trip id="245" depart="88.20" from="-gneE43" to="-gneE43"/>
    <trip id="246" depart="88.56" from="-gneE60" to="-gneE28"/>
    <trip id="247" depart="88.92" from="-gneE53" to="gneE53"/>
    <trip id="248" depart="89.28" from="-gneE58" to="-gneE39"/>
    <trip id="249" depart="89.64" from="-gneE61" to="-gneE37"/>
    <trip id="250" depart="90.00" from="-gneE71" to="-gneE27"/>
    <trip id="251" depart="90.36" from="-gneE57" to="gneE44"/>
    <trip id="252" depart="90.72" from="-gneE27" to="gneE51"/>
    <trip id="253" depart="91.08" from="-gneE37" to="gneE37"/>
    <trip id="254" depart="91.44" from="-gneE29" to="gneE29"/>
    <trip id="255" depart="91.80" from="-gneE43" to="-gneE52"/>
    <trip id="256" depart="92.16" from="gneE32" to="gneE29"/>
    <trip id="257" depart="92.52" from="gneE32" to="gneE65"/>
    <trip id="258" depart="92.88" from="-gneE46" to="-gneE31"/>
    <trip id="259" depart="93.24" from="-gneE27" to="gneE42"/>
    <trip id="260" depart="93.60" from="gneE52" to="gneE27"/>
    <trip id="261" depart="93.96" from="-gneE72" to="gneE60"/>
    <trip id="262" depart="94.32" from="-gneE72" to="gneE58"/>
    <trip id="263" depart="94.68" from="gneE49" to="-gneE42"/>
    <trip id="264" depart="95.04" from="-gneE27" to="-gneE38"/>
    <trip id="265" depart="95.40" from="-gneE37" to="gneE52"/>
    <trip id="266" depart="95.76" from="-gneE68" to="-gneE43"/>
    <trip id="267" depart="96.12" from="gneE28" to="gneE60"/>
    <trip id="268" depart="96.48" from="-gneE40" to="gneE48"/>
    <trip id="269" depart="96.84" from="gneE31" to="-gneE36"/>
    <trip id="270" depart="97.20" from="gneE39" to="gneE71"/>
    <trip id="271" depart="97.56" from="-gneE35" to="-gneE27"/>
    <trip id="272" depart="97.92" from="-gneE51" to="gneE53"/>
    <trip id="273" depart="98.28" from="gneE50" to="gneE30"/>
    <trip id="274" depart="98.64" from="gneE29" to="-gneE31"/>
    <trip id="275" depart="99.00" from="gneE27" to="gneE49"/>
    <trip id="276" depart="99.36" from="-gneE35" to="gneE60"/>
    <trip id="277" depart="99.72" from="gneE41" to="gneE46"/>
    <trip id="278" depart="100.08" from="-gneE36" to="gneE72"/>
    <trip id="279" depart="100.44" from="gneE36" to="gneE24"/>
    <trip id="280" depart="100.80" from="-gneE60" to="gneE28"/>
    <trip id="281" depart="101.16" from="-gneE65" to="gneE24"/>
    <trip id="282" depart="101.52" from="gneE41" to="gneE64"/>
    <trip id="283" depart="101.88" from="-gneE35" to="gneE71"/>
    <trip id="284" depart="102.24" from="-gneE71" to="gneE65"/>
    <trip id="285" depart="102.60" from="gneE29" to="gneE35"/>
    <trip id="286" depart="102.96" from="gneE30" to="gneE71"/>
    <trip id="287" depart="103.32" from="-gneE48" to="gneE64"/>
    <trip id="288" depart="103.68" from="-gneE67" to="gneE38"/>
    <trip id="289" depart="104.04" from="-gneE60" to="gneE57"/>
    <trip id="290" depart="104.40" from="-gneE48" to="gneE66"/>
    <trip id="291" depart="104.76" from="gneE39" to="-gneE32"/>
    <trip id="292" depart="105.12" from="gneE43" to="-gneE45"/>
    <trip id="293" depart="105.48" from="-gneE61" to="gneE48"/>
    <trip id="294" depart="105.84" from="-gneE55" to="-gneE28"/>
    <trip id="295" depart="106.20" from="gneE41" to="-gneE41"/>
    <trip id="296" depart="106.56" from="-gneE43" to="gneE61"/>
    <trip id="297" depart="106.92" from="-gneE53" to="gneE67"/>
    <trip id="298" depart="107.28" from="gneE28" to="-gneE48"/>
    <trip id="299" depart="107.64" from="-gneE24" to="gneE70"/>
    <trip id="300" depart="108.00" from="-gneE32" to="gneE57"/>
    <trip id="301" depart="108.36" from="-gneE65" to="gneE58"/>
    <trip id="302" depart="108.72" from="gneE27" to="gneE51"/>
    <trip id="303" depart="109.08" from="-gneE65" to="gneE61"/>
    <trip id="304" depart="109.44" from="-gneE32" to="-gneE43"/>
    <trip id="305" depart="109.80" from="gneE27" to="-gneE50"/>
    <trip id="306" depart="110.16" from="-gneE69" to="gneE37"/>
    <trip id="307" depart="110.52" from="-gneE67" to="gneE32"/>
    <trip id="308" depart="110.88" from="gneE31" to="-gneE52"/>
    <trip id="309" depart="111.24" from="gneE28" to="-gneE48"/>
    <trip id="310" depart="111.60" from="-gneE45" to="-gneE36"/>
    <trip id="311" depart="111.96" from="-gneE41" to="-gneE36"/>
    <trip id="312" depart="112.32" from="-gneE67" to="gneE60"/>
    <trip id="313" depart="112.68" from="-gneE41" to="-gneE43"/>
    <trip id="314" depart="113.04" from="-gneE64" to="gneE57"/>
    <trip id="315" depart="113.40" from="gneE51" to="gneE41"/>
    <trip id="316" depart="113.76" from="-gneE49" to="-gneE35"/>
    <trip id="317" depart="114.12" from="-gneE41" to="-gneE44"/>
    <trip id="318" depart="114.48" from="-gneE40" to="-gneE27"/>
    <trip id="319" depart="114.84" from="-gneE67" to="-gneE48"/>
    <trip id="320" depart="115.20" from="gneE51" to="gneE43"/>
    <trip id="321" depart="115.56" from="gneE28" to="-gneE37"/>
    <trip id="322" depart="115.92" from="gneE42" to="gneE39"/>
    <trip id="323" depart="116.28" from="gneE42" to="gneE45"/>
    <trip id="324" depart="116.64" from="-gneE64" to="gneE35"/>
    <trip id="325" depart="117.00" from="-gneE41" to="-gneE29"/>
    <trip id="326" depart="117.36" from="gneE48" to="gneE38"/>
    <trip id="327" depart="117.72" from="gneE39" to="gneE30"/>
    <trip id="328" depart="118.08" from="-gneE31" to="gneE50"/>
    <trip id="329" depart="118.44" from="-gneE29" to="-gneE38"/>
    <trip id="330" depart="118.80" from="-gneE68" to="-gneE50"/>
    <trip id="331" depart="119.16" from="gneE52" to="-gneE36"/>
    <trip id="332" depart="119.52" from="gneE35" to="gneE48"/>
    <trip id="333" depart="119.88" from="gneE37" to="-gneE44"/>
    <trip id="334" depart="120.24" from="-gneE66" to="gneE36"/>
    <trip id="335" depart="120.60" from="-gneE60" to="gneE67"/>
    <trip id="336" depart="120.96" from="gneE52" to="-gneE50"/>
    <trip id="337" depart="121.32" from="-gneE71" to="gneE48"/>
    <trip id="338" depart="121.68" from="gneE31" to="gneE70"/>
    <trip id="339" depart="122.04" from="-gneE42" to="-gneE43"/>
    <trip id="340" depart="122.40" from="-gneE72" to="-gneE39"/>
    <trip id="341" depart="122.76" from="-gneE40" to="-gneE31"/>
    <trip id="342" depart="123.12" from="-gneE24" to="gneE36"/>
    <trip id="343" depart="123.48" from="-gneE70" to="-gneE49"/>
    <trip id="344" depart="123.84" from="-gneE44" to="gneE55"/>
    <trip id="345" depart="124.20" from="gneE28" to="gneE36"/>
    <trip id="346" depart="124.56" from="gneE27" to="gneE69"/>
    <trip id="347" depart="124.92" from="gneE36" to="gneE49"/>
    <trip id="348" depart="125.28" from="-gneE72" to="gneE70"/>
    <trip id="349" depart="125.64" from="-gneE60" to="gneE42"/>
    <trip id="350" depart="126.00" from="-gneE72" to="gneE69"/>
    <trip id="351" depart="126.36" from="gneE39" to="-gneE31"/>
    <trip id="352" depart="126.72" from="-gneE39" to="-gneE51"/>
    <trip id="353" depart="127.08" from="gneE32" to="gneE44"/>
    <trip id="354" depart="127.44" from="-gneE49" to="-gneE36"/>
    <trip id="355" depart="127.80" from="gneE27" to="gneE55"/>
    <trip id="356" depart="128.16" from="gneE48" to="gneE39"/>
    <trip id="357" depart="128.52" from="-gneE65" to="-gneE31"/>
    <trip id="358" depart="128.88" from="-gneE28" to="gneE32"/>
    <trip id="359" depart="129.24" from="-gneE52" to="-gneE45"/>
    <trip id="360" depart="129.60" from="-gneE32" to="gneE71"/>
    <trip id="361" depart="129.96" from="gneE40" to="gneE45"/>
    <trip id="362" depart="130.32" from="gneE49" to="gneE72"/>
    <trip id="363" depart="130.68" from="gneE24" to="-gneE48"/>
    <trip id="364" depart="131.04" from="-gneE28" to="gneE58"/>
    <trip id="365" depart="131.40" from="-gneE64" to="gneE51"/>
    <trip id="366" depart="131.76" from="gneE45" to="-gneE40"/>
    <trip id="367" depart="132.12" from="-gneE69" to="gneE50"/>
    <trip id="368" depart="132.48" from="-gneE65" to="-gneE32"/>
    <trip id="369" depart="132.84" from="-gneE54" to="-gneE52"/>
    <trip id="370" depart="133.20" from="gneE24" to="gneE66"/>
    <trip id="371" depart="133.56" from="-gneE52" to="gneE54"/>
    <trip id="372" depart="133.92" from="-gneE49" to="gneE70"/>
    <trip id="373" depart="134.28" from="gneE38" to="gneE43"/>
    <trip id="374" depart="134.64" from="-gneE61" to="-gneE51"/>
    <trip id="375" depart="135.00" from="-gneE52" to="gneE71"/>
    <trip id="376" depart="135.36" from="-gneE58" to="gneE40"/>
    <trip id="377" depart="135.72" from="gneE52" to="gneE52"/>
    <trip id="378" depart="136.08" from="-gneE67" to="gneE31"/>
    <trip id="379" depart="136.44" from="-gneE41" to="gneE27"/>
    <trip id="380" depart="136.80" from="gneE32" to="gneE49"/>
    <trip id="381" depart="137.16" from="gneE32" to="-gneE42"/>
    <trip id="382" depart="137.52" from="-gneE68" to="gneE70"/>
    <trip id="383" depart="137.88" from="-gneE60" to="gneE55"/>
    <trip id="384" depart="138.24" from="-gneE36" to="gneE72"/>
    <trip id="385" depart="138.60" from="-gneE70" to="-gneE45"/>
    <trip id="386" depart="138.96" from="-gneE39" to="gneE43"/>
    <trip id="387" depart="139.32" from="-gneE68" to="-gneE32"/>
    <trip id="388" depart="139.68" from="gneE52" to="gneE69"/>
    <trip id="389" depart="140.04" from="-gneE61" to="-gneE36"/>
    <trip id="390" depart="140.40" from="gneE39" to="gneE39"/>
    <trip id="391" depart="140.76" from="gneE29" to="gneE40"/>
    <trip id="392" depart="141.12" from="-gneE48" to="gneE65"/>
    <trip id="393" depart="141.48" from="gneE51" to="-gneE45"/>
    <trip id="394" depart="141.84" from="-gneE68" to="gneE29"/>
    <trip id="395" depart="142.20" from="gneE46" to="gneE40"/>
    <trip id="396" depart="142.56" from="gneE43" to="gneE67"/>
    <trip id="397" depart="142.92" from="-gneE48" to="gneE61"/>
    <trip id="398" depart="143.28" from="-gneE58" to="gneE70"/>
    <trip id="399" depart="143.64" from="-gneE66" to="gneE64"/>
    <trip id="400" depart="144.00" from="-gneE49" to="-gneE50"/>
    <trip id="401" depart="144.36" from="-gneE69" to="gneE72"/>
    <trip id="402" depart="144.72" from="-gneE65" to="-gneE38"/>
    <trip id="403" depart="145.08" from="-gneE67" to="gneE24"/>
    <trip id="404" depart="145.44" from="-gneE68" to="gneE42"/>
    <trip id="405" depart="145.80" from="-gneE61" to="-gneE52"/>
    <trip id="406" depart="146.16" from="-gneE41" to="gneE55"/>
    <trip id="407" depart="146.52" from="-gneE69" to="-gneE44"/>
    <trip id="408" depart="146.88" from="gneE35" to="-gneE29"/>
    <trip id="409" depart="147.24" from="gneE31" to="gneE55"/>
    <trip id="410" depart="147.60" from="gneE38" to="gneE29"/>
    <trip id="411" depart="147.96" from="-gneE72" to="gneE64"/>
    <trip id="412" depart="148.32" from="gneE51" to="gneE39"/>
    <trip id="413" depart="148.68" from="-gneE28" to="gneE39"/>
    <trip id="414" depart="149.04" from="-gneE69" to="gneE67"/>
    <trip id="415" depart="149.40" from="gneE42" to="gneE35"/>
    <trip id="416" depart="149.76" from="-gneE67" to="gneE36"/>
    <trip id="417" depart="150.12" from="gneE30" to="gneE31"/>
    <trip id="418" depart="150.48" from="-gneE72" to="-gneE39"/>
    <trip id="419" depart="150.84" from="-gneE64" to="gneE71"/>
    <trip id="420" depart="151.20" from="-gneE53" to="gneE54"/>
    <trip id="421" depart="151.56" from="-gneE72" to="gneE66"/>
    <trip id="422" depart="151.92" from="gneE41" to="gneE66"/>
    <trip id="423" depart="152.28" from="-gneE55" to="-gneE51"/>
    <trip id="424" depart="152.64" from="gneE29" to="gneE58"/>
    <trip id="425" depart="153.00" from="gneE42" to="-gneE28"/>
    <trip id="426" depart="153.36" from="-gneE30" to="gneE50"/>
    <trip id="427" depart="153.72" from="gneE46" to="gneE72"/>
    <trip id="428" depart="154.08" from="gneE31" to="gneE35"/>
    <trip id="429" depart="154.44" from="-gneE35" to="gneE50"/>
    <trip id="430" depart="154.80" from="gneE42" to="gneE35"/>
    <trip id="431" depart="155.16" from="gneE28" to="gneE68"/>
    <trip id="432" depart="155.52" from="-gneE29" to="gneE61"/>
    <trip id="433" depart="155.88" from="-gneE49" to="gneE28"/>
    <trip id="434" depart="156.24" from="-gneE38" to="gneE42"/>
    <trip id="435" depart="156.60" from="-gneE68" to="gneE61"/>
    <trip id="436" depart="156.96" from="-gneE40" to="-gneE31"/>
    <trip id="437" depart="157.32" from="gneE42" to="gneE49"/>
    <trip id="438" depart="157.68" from="-gneE45" to="gneE69"/>
    <trip id="439" depart="158.04" from="-gneE38" to="gneE37"/>
    <trip id="440" depart="158.40" from="-gneE46" to="-gneE46"/>
    <trip id="441" depart="158.76" from="-gneE24" to="gneE64"/>
    <trip id="442" depart="159.12" from="gneE44" to="gneE53"/>
    <trip id="443" depart="159.48" from="-gneE39" to="gneE35"/>
    <trip id="444" depart="159.84" from="-gneE53" to="gneE46"/>
    <trip id="445" depart="160.20" from="-gneE72" to="gneE32"/>
    <trip id="446" depart="160.56" from="-gneE45" to="gneE66"/>
    <trip id="447" depart="160.92" from="-gneE42" to="gneE29"/>
    <trip id="448" depart="161.28" from="-gneE64" to="-gneE44"/>
    <trip id="449" depart="161.64" from="-gneE69" to="gneE45"/>
    <trip id="450" depart="162.00" from="gneE52" to="-gneE50"/>
    <trip id="451" depart="162.36" from="gneE51" to="gneE52"/>
    <trip id="452" depart="162.72" from="-gneE48" to="gneE44"/>
    <trip id="453" depart="163.08" from="gneE27" to="gneE58"/>
    <trip id="454" depart="163.44" from="-gneE29" to="gneE48"/>
    <trip id="455" depart="163.80" from="-gneE65" to="gneE69"/>
    <trip id="456" depart="164.16" from="-gneE49" to="gneE61"/>
    <trip id="457" depart="164.52" from="-gneE70" to="gneE27"/>
    <trip id="458" depart="164.88" from="-gneE71" to="gneE49"/>
    <trip id="459" depart="165.24" from="gneE24" to="gneE57"/>
    <trip id="460" depart="165.60" from="-gneE72" to="gneE65"/>
    <trip id="461" depart="165.96" from="-gneE71" to="gneE68"/>